<?xml version="1.0" encoding="UTF-8"?>
<!-- generated on 2018-09-04 10:14:55.583000 by $Id$ via randomTrips.py
  options: 
-->
<routes xmlns:xsi="http://www.w3.org/2001/XMLSchema-instance" xsi:noNamespaceSchemaLocation="http://sumo.dlr.de/xsd/routes_file.xsd">
    <vType id="veh_passenger" vClass="passenger">
    </vType>
    <trip id="veh0" depart="0.00" departLane="best" from="298742249#5-AddedOnRampEdge" to="-120104814" type="veh_passenger"/>
    <trip id="veh1" depart="0.51" departLane="best" from="119884167#22" to="119538430#0" type="veh_passenger"/>
    <trip id="veh2" depart="1.02" departLane="best" from="317256447#3" to="30576543#7" type="veh_passenger"/>
    <trip id="veh3" depart="1.53" departLane="best" from="547767663" to="-123501492#3" type="veh_passenger"/>
    <trip id="veh4" depart="2.04" departLane="best" from="123501494#5" to="-120104821#3" type="veh_passenger"/>
    <trip id="veh5" depart="2.55" departLane="best" from="105207811#5" to="154343153#0" type="veh_passenger"/>
    <trip id="veh6" depart="3.06" departLane="best" from="-120104821#1" to="105048945#4" type="veh_passenger"/>
    <trip id="veh7" depart="3.57" departLane="best" from="298742292#2" to="172366369" type="veh_passenger"/>
    <trip id="veh8" depart="4.08" departLane="best" from="105207818#0" to="26561867#1" type="veh_passenger"/>
    <trip id="veh9" depart="4.59" departLane="best" from="317256477#0" to="-105048933" type="veh_passenger"/>
    <trip id="veh10" depart="5.09" departLane="best" from="317256463#4" to="312688118#4" type="veh_passenger"/>
    <trip id="veh11" depart="5.60" departLane="best" from="122892035#6" to="-547767657#5" type="veh_passenger"/>
    <trip id="veh12" depart="6.11" departLane="best" from="89890762#0" to="122892038#1" type="veh_passenger"/>
    <trip id="veh13" depart="6.62" departLane="best" from="-123501494#0" to="-128090430" type="veh_passenger"/>
    <trip id="veh14" depart="7.13" departLane="best" from="367494004#1" to="284557033#4" type="veh_passenger"/>
    <trip id="veh15" depart="7.64" departLane="best" from="317256463#6" to="317256443#5" type="veh_passenger"/>
    <trip id="veh16" depart="8.15" departLane="best" from="155823521#4" to="96462823#5" type="veh_passenger"/>
    <trip id="veh17" depart="8.66" departLane="best" from="122893815#5" to="179149931#1" type="veh_passenger"/>
    <trip id="veh18" depart="9.17" departLane="best" from="317256480#7" to="298742244#3" type="veh_passenger"/>
    <trip id="veh19" depart="9.68" departLane="best" from="431593413#3" to="227603833#2" type="veh_passenger"/>
    <trip id="veh20" depart="10.19" departLane="best" from="312688119#3" to="-122893809#2" type="veh_passenger"/>
    <trip id="veh21" depart="10.70" departLane="best" from="105207842#2" to="120106724#1" type="veh_passenger"/>
    <trip id="veh22" depart="11.21" departLane="best" from="-123501483#2" to="119662640#11" type="veh_passenger"/>
    <trip id="veh23" depart="11.72" departLane="best" from="-130921820#0" to="120104821#1" type="veh_passenger"/>
    <trip id="veh24" depart="12.23" departLane="best" from="298742249#3" to="122893814#3" type="veh_passenger"/>
    <trip id="veh25" depart="12.74" departLane="best" from="122893814#2" to="105207818#1" type="veh_passenger"/>
    <trip id="veh26" depart="13.25" departLane="best" from="298742292#10" to="284769919#0" type="veh_passenger"/>
    <trip id="veh27" depart="13.76" departLane="best" from="-547767666#2" to="317256443#4" type="veh_passenger"/>
    <trip id="veh28" depart="14.27" departLane="best" from="96462844#2" to="298742249#6" type="veh_passenger"/>
    <trip id="veh29" depart="14.77" departLane="best" from="179393210#1" to="312688115#15" type="veh_passenger"/>
    <trip id="veh30" depart="15.28" departLane="best" from="360623741#1" to="317256452#7" type="veh_passenger"/>
    <trip id="veh31" depart="15.79" departLane="best" from="105207842#3" to="-120106726" type="veh_passenger"/>
    <trip id="veh32" depart="16.30" departLane="best" from="120108387#5" to="119884167#3" type="veh_passenger"/>
    <trip id="veh33" depart="16.81" departLane="best" from="105048945#3" to="89817558#0" type="veh_passenger"/>
    <trip id="veh34" depart="17.32" departLane="best" from="498920717#0" to="122486205#1" type="veh_passenger"/>
    <trip id="veh35" depart="17.83" departLane="best" from="298742292#9" to="123501482#2" type="veh_passenger"/>
    <trip id="veh36" depart="18.34" departLane="best" from="66209430#7" to="131827641#5" type="veh_passenger"/>
    <trip id="veh37" depart="18.85" departLane="best" from="119884167#12" to="119873420#0" type="veh_passenger"/>
    <trip id="veh38" depart="19.36" departLane="best" from="180890626#1" to="119884167#2" type="veh_passenger"/>
    <trip id="veh39" depart="19.87" departLane="best" from="123501482#2" to="105207846#0" type="veh_passenger"/>
    <trip id="veh40" depart="20.38" departLane="best" from="96710737#1" to="154343153#4" type="veh_passenger"/>
    <trip id="veh41" depart="20.89" departLane="best" from="-123501492#7" to="-122893809#4" type="veh_passenger"/>
    <trip id="veh42" depart="21.40" departLane="best" from="-130964408#4" to="298742245#7" type="veh_passenger"/>
    <trip id="veh43" depart="21.91" departLane="best" from="317256460#5" to="125830846#1" type="veh_passenger"/>
    <trip id="veh44" depart="22.42" departLane="best" from="96462844#9" to="154343163" type="veh_passenger"/>
    <trip id="veh45" depart="22.93" departLane="best" from="96462823#3" to="412746868" type="veh_passenger"/>
    <trip id="veh46" depart="23.44" departLane="best" from="-119538430#0" to="312688123#2" type="veh_passenger"/>
    <trip id="veh47" depart="23.95" departLane="best" from="312688115#14" to="154767791#2" type="veh_passenger"/>
    <trip id="veh48" depart="24.45" departLane="best" from="119884167#15" to="298742249#7" type="veh_passenger"/>
    <trip id="veh49" depart="24.96" departLane="best" from="-130964408#6" to="130964408#1" type="veh_passenger"/>
    <trip id="veh50" depart="25.47" departLane="best" from="498920717#0" to="119884167#20" type="veh_passenger"/>
    <trip id="veh51" depart="25.98" departLane="best" from="154343151#1" to="-89817573#2" type="veh_passenger"/>
    <trip id="veh52" depart="26.49" departLane="best" from="66209430#5" to="498920715#5" type="veh_passenger"/>
    <trip id="veh53" depart="27.00" departLane="best" from="120106724#0" to="298742249#5" type="veh_passenger"/>
    <trip id="veh54" depart="27.51" departLane="best" from="28640917#0" to="-547767657#2" type="veh_passenger"/>
    <trip id="veh55" depart="28.02" departLane="best" from="317256449#7" to="155823521#4" type="veh_passenger"/>
    <trip id="veh56" depart="28.53" departLane="best" from="-105035595#2" to="122616360#1" type="veh_passenger"/>
    <trip id="veh57" depart="29.04" departLane="best" from="-119872249" to="85717246#2" type="veh_passenger"/>
    <trip id="veh58" depart="29.55" departLane="best" from="546733517" to="317256483#11" type="veh_passenger"/>
    <trip id="veh59" depart="30.06" departLane="best" from="120108191#1" to="-122893815#3" type="veh_passenger"/>
    <trip id="veh60" depart="30.57" departLane="best" from="521311549" to="89817571#1" type="veh_passenger"/>
    <trip id="veh61" depart="31.08" departLane="best" from="-123501492#0" to="152745351#2" type="veh_passenger"/>
    <trip id="veh62" depart="31.59" departLane="best" from="-122893820#2" to="317256449#5" type="veh_passenger"/>
    <trip id="veh63" depart="32.10" departLane="best" from="317256450#0" to="-172366370" type="veh_passenger"/>
    <trip id="veh64" depart="32.61" departLane="best" from="133323227#2" to="179147420#5" type="veh_passenger"/>
    <trip id="veh65" depart="33.12" departLane="best" from="119884167#12" to="498920715#7" type="veh_passenger"/>
    <trip id="veh67" depart="34.13" departLane="best" from="172366369" to="317256443#5" type="veh_passenger"/>
    <trip id="veh68" depart="34.64" departLane="best" from="105035595#6" to="122486201#4" type="veh_passenger"/>
    <trip id="veh69" depart="35.15" departLane="best" from="96462844#8" to="298742292#10" type="veh_passenger"/>
    <trip id="veh70" depart="35.66" departLane="best" from="130964408#11" to="154343156#1" type="veh_passenger"/>
    <trip id="veh71" depart="36.17" departLane="best" from="-132634126#5" to="119538430#2" type="veh_passenger"/>
    <trip id="veh72" depart="36.68" departLane="best" from="122892035#2" to="26561867#0" type="veh_passenger"/>
    <trip id="veh74" depart="37.70" departLane="best" from="105207842#3" to="547767667#1" type="veh_passenger"/>
    <trip id="veh76" depart="38.72" departLane="best" from="119538430#4" to="298742308#7" type="veh_passenger"/>
    <trip id="veh77" depart="39.23" departLane="best" from="105207811#0" to="-180890627#1" type="veh_passenger"/>
    <trip id="veh78" depart="39.74" departLane="best" from="85717251#1" to="180890626#6" type="veh_passenger"/>
    <trip id="veh79" depart="40.25" departLane="best" from="133323226#1" to="317256459#5" type="veh_passenger"/>
    <trip id="veh80" depart="40.76" departLane="best" from="317256463#6" to="105035595#7" type="veh_passenger"/>
    <trip id="veh81" depart="41.27" departLane="best" from="-123501494#6" to="128090432#6" type="veh_passenger"/>
    <trip id="veh82" depart="41.78" departLane="best" from="123501494#6" to="131827642#7" type="veh_passenger"/>
    <trip id="veh83" depart="42.29" departLane="best" from="317256446#0" to="30576543#2" type="veh_passenger"/>
    <trip id="veh84" depart="42.80" departLane="best" from="96462842#1" to="-130921820#0" type="veh_passenger"/>
    <trip id="veh85" depart="43.30" departLane="best" from="123501483#1" to="122893804#3" type="veh_passenger"/>
    <trip id="veh86" depart="43.81" departLane="best" from="431593413#3" to="119874976#1" type="veh_passenger"/>
    <trip id="veh87" depart="44.32" departLane="best" from="102243755#1" to="131822656#1" type="veh_passenger"/>
    <trip id="veh88" depart="44.83" departLane="best" from="123501494#5" to="120104821#1" type="veh_passenger"/>
    <trip id="veh89" depart="45.34" departLane="best" from="119662640#9" to="66209432#5" type="veh_passenger"/>
    <trip id="veh90" depart="45.85" departLane="best" from="130964408#6" to="412746868" type="veh_passenger"/>
    <trip id="veh91" depart="46.36" departLane="best" from="179391775#1" to="-122893814#3" type="veh_passenger"/>
    <trip id="veh92" depart="46.87" departLane="best" from="96710737#3" to="317256483#5" type="veh_passenger"/>
    <trip id="veh93" depart="47.38" departLane="best" from="96462823#0" to="66209432#9" type="veh_passenger"/>
    <trip id="veh94" depart="47.89" departLane="best" from="382919221" to="-89817544#1" type="veh_passenger"/>
    <trip id="veh95" depart="48.40" departLane="best" from="153303556#2" to="105207841#1" type="veh_passenger"/>
    <trip id="veh96" depart="48.91" departLane="best" from="123501482#3" to="-122893815#5" type="veh_passenger"/>
    <trip id="veh97" depart="49.42" departLane="best" from="119884167#12" to="317256459#4" type="veh_passenger"/>
    <trip id="veh98" depart="49.93" departLane="best" from="131823474#1" to="127158168" type="veh_passenger"/>
    <trip id="veh99" depart="50.44" departLane="best" from="89890762#0" to="96462844#9" type="veh_passenger"/>
    <trip id="veh100" depart="50.95" departLane="best" from="179393210#0" to="312688123#0" type="veh_passenger"/>
    <trip id="veh101" depart="51.46" departLane="best" from="-49708721#3" to="120108191#0" type="veh_passenger"/>
    <trip id="veh102" depart="51.97" departLane="best" from="96462823#0" to="26541424" type="veh_passenger"/>
    <trip id="veh103" depart="52.48" departLane="best" from="179147420#1" to="317256449#10" type="veh_passenger"/>
    <trip id="veh104" depart="52.98" departLane="best" from="-122893815#3" to="26561737#4" type="veh_passenger"/>
    <trip id="veh105" depart="53.49" departLane="best" from="154343153#1" to="382919226#4" type="veh_passenger"/>
    <trip id="veh106" depart="54.00" departLane="best" from="-49708721#6" to="89890798#1" type="veh_passenger"/>
    <trip id="veh107" depart="54.51" departLane="best" from="-123501483#2" to="102243756#4" type="veh_passenger"/>
    <trip id="veh108" depart="55.02" departLane="best" from="284557003" to="30576543#6" type="veh_passenger"/>
    <trip id="veh109" depart="55.53" departLane="best" from="119538430#1" to="-154343156#2" type="veh_passenger"/>
    <trip id="veh110" depart="56.04" departLane="best" from="547767661#4" to="119873420#0" type="veh_passenger"/>
    <trip id="veh111" depart="56.55" departLane="best" from="284557003" to="298742244#4" type="veh_passenger"/>
    <trip id="veh112" depart="57.06" departLane="best" from="123501494#1" to="26561737#4" type="veh_passenger"/>
    <trip id="veh113" depart="57.57" departLane="best" from="154343161#2" to="85717251#2" type="veh_passenger"/>
    <trip id="veh114" depart="58.08" departLane="best" from="105048913#1" to="312688122#6" type="veh_passenger"/>
    <trip id="veh115" depart="58.59" departLane="best" from="119538430#5" to="123501482#2" type="veh_passenger"/>
    <trip id="veh116" depart="59.10" departLane="best" from="30576543#2" to="120108387#0" type="veh_passenger"/>
    <trip id="veh117" depart="59.61" departLane="best" from="120108387#6" to="317256449#14" type="veh_passenger"/>
    <trip id="veh118" depart="60.12" departLane="best" from="-123498421#0" to="131827641#4" type="veh_passenger"/>
    <trip id="veh119" depart="60.63" departLane="best" from="96710737#2" to="96462844#9" type="veh_passenger"/>
    <trip id="veh120" depart="61.14" departLane="best" from="-123498421#1" to="105207841#1" type="veh_passenger"/>
    <trip id="veh121" depart="61.65" departLane="best" from="119884167#12" to="85717251#1" type="veh_passenger"/>
    <trip id="veh122" depart="62.16" departLane="best" from="122893814#2" to="-547767661#1" type="veh_passenger"/>
    <trip id="veh124" depart="63.17" departLane="best" from="294238561" to="96462844#1" type="veh_passenger"/>
    <trip id="veh125" depart="63.68" departLane="best" from="298742292#7" to="-105207811#1" type="veh_passenger"/>
    <trip id="veh126" depart="64.19" departLane="best" from="317256477#7" to="120108191#4" type="veh_passenger"/>
    <trip id="veh127" depart="64.70" departLane="best" from="298742308#3" to="89817546#1" type="veh_passenger"/>
    <trip id="veh128" depart="65.21" departLane="best" from="-172366368" to="-152745350#0" type="veh_passenger"/>
    <trip id="veh129" depart="65.72" departLane="best" from="-130964408#13" to="179149931#2" type="veh_passenger"/>
    <trip id="veh130" depart="66.23" departLane="best" from="119884167#20" to="284557033#7" type="veh_passenger"/>
    <trip id="veh131" depart="66.74" departLane="best" from="312688123#1" to="105207811#1" type="veh_passenger"/>
    <trip id="veh132" depart="67.25" departLane="best" from="298742249#2" to="119884167#21" type="veh_passenger"/>
    <trip id="veh133" depart="67.76" departLane="best" from="153303557" to="547767667#1" type="veh_passenger"/>
    <trip id="veh134" depart="68.27" departLane="best" from="362407485#2" to="-123501494#2" type="veh_passenger"/>
    <trip id="veh135" depart="68.78" departLane="best" from="123501494#6" to="120104818" type="veh_passenger"/>
    <trip id="veh136" depart="69.29" departLane="best" from="-105035595#6" to="317256452#2" type="veh_passenger"/>
    <trip id="veh137" depart="69.80" departLane="best" from="298742249#4-AddedOnRampEdge" to="119884167#2" type="veh_passenger"/>
    <trip id="veh138" depart="70.31" departLane="best" from="317256448#1" to="179147421#2" type="veh_passenger"/>
    <trip id="veh139" depart="70.82" departLane="best" from="128090431" to="-105207811#3" type="veh_passenger"/>
    <trip id="veh140" depart="71.33" departLane="best" from="-123501482#1" to="547767660" type="veh_passenger"/>
    <trip id="veh141" depart="71.84" departLane="best" from="547767666#3" to="172366370" type="veh_passenger"/>
    <trip id="veh142" depart="72.34" departLane="best" from="317256483#2" to="26561737#3" type="veh_passenger"/>
    <trip id="veh143" depart="72.85" departLane="best" from="-26561867#1" to="-172366369" type="veh_passenger"/>
    <trip id="veh144" depart="73.36" departLane="best" from="120108191#1" to="547767665#9" type="veh_passenger"/>
    <trip id="veh145" depart="73.87" departLane="best" from="317256461#2" to="412746868" type="veh_passenger"/>
    <trip id="veh146" depart="74.38" departLane="best" from="547767665#5" to="105207818#1" type="veh_passenger"/>
    <trip id="veh147" depart="74.89" departLane="best" from="119662640#9" to="-130964408#11" type="veh_passenger"/>
    <trip id="veh148" depart="75.40" departLane="best" from="317256454" to="547767661#0" type="veh_passenger"/>
    <trip id="veh149" depart="75.91" departLane="best" from="123501488#0" to="298742245#1" type="veh_passenger"/>
    <trip id="veh151" depart="76.93" departLane="best" from="435034520" to="96462829#1" type="veh_passenger"/>
    <trip id="veh152" depart="77.44" departLane="best" from="317256477#0-AddedOffRampEdge" to="547767657#4" type="veh_passenger"/>
    <trip id="veh153" depart="77.95" departLane="best" from="-120104821#0" to="317256447#0" type="veh_passenger"/>
    <trip id="veh154" depart="78.46" departLane="best" from="122616360#1" to="85717247#1" type="veh_passenger"/>
    <trip id="veh155" depart="78.97" departLane="best" from="317256461#9" to="431593413#5" type="veh_passenger"/>
    <trip id="veh156" depart="79.48" departLane="best" from="317256477#0-AddedOffRampEdge" to="119884167#24" type="veh_passenger"/>
    <trip id="veh157" depart="79.99" departLane="best" from="317256460#0" to="-130964408#7" type="veh_passenger"/>
    <trip id="veh158" depart="80.50" departLane="best" from="498920715#6" to="412746867#4" type="veh_passenger"/>
    <trip id="veh159" depart="81.01" departLane="best" from="105207827" to="317256477#9" type="veh_passenger"/>
    <trip id="veh160" depart="81.52" departLane="best" from="131827641#5" to="120108387#5" type="veh_passenger"/>
    <trip id="veh161" depart="82.02" departLane="best" from="317256461#1" to="119538430#5" type="veh_passenger"/>
    <trip id="veh162" depart="82.53" departLane="best" from="-120104816" to="105048913#2" type="veh_passenger"/>
    <trip id="veh164" depart="83.55" departLane="best" from="298742249#7" to="123501483#2" type="veh_passenger"/>
    <trip id="veh165" depart="84.06" departLane="best" from="96462832#2" to="154767791#1" type="veh_passenger"/>
    <trip id="veh166" depart="84.57" departLane="best" from="89817546#0" to="-152745350#0" type="veh_passenger"/>
    <trip id="veh167" depart="85.08" departLane="best" from="96462823#2" to="-89817573#2" type="veh_passenger"/>
    <trip id="veh168" depart="85.59" departLane="best" from="89930942#0" to="119884167#22" type="veh_passenger"/>
    <trip id="veh169" depart="86.10" departLane="best" from="317256446#0" to="122486201#6" type="veh_passenger"/>
    <trip id="veh170" depart="86.61" departLane="best" from="284769918#2" to="154343154#3" type="veh_passenger"/>
    <trip id="veh171" depart="87.12" departLane="best" from="122893816#5" to="227603833#1" type="veh_passenger"/>
    <trip id="veh172" depart="87.63" departLane="best" from="172366368" to="312688123#1" type="veh_passenger"/>
    <trip id="veh173" depart="88.14" departLane="best" from="317256448#2" to="298742308#9" type="veh_passenger"/>
    <trip id="veh174" depart="88.65" departLane="best" from="122893809#0" to="-123498420#1" type="veh_passenger"/>
    <trip id="veh175" depart="89.16" departLane="best" from="298742308#4" to="122892035#2" type="veh_passenger"/>
    <trip id="veh176" depart="89.67" departLane="best" from="120108387#4" to="382919223" type="veh_passenger"/>
    <trip id="veh177" depart="90.18" departLane="best" from="312688123#4" to="120108387#0" type="veh_passenger"/>
    <trip id="veh178" depart="90.69" departLane="best" from="120108191#4" to="123501492#1" type="veh_passenger"/>
    <trip id="veh179" depart="91.20" departLane="best" from="123501483#1" to="120106727#2" type="veh_passenger"/>
    <trip id="veh180" depart="91.70" departLane="best" from="-154343156#2" to="124955122#1" type="veh_passenger"/>
    <trip id="veh181" depart="92.21" departLane="best" from="89817546#1" to="30576543#8" type="veh_passenger"/>
    <trip id="veh182" depart="92.72" departLane="best" from="547767666#1" to="298742244#0" type="veh_passenger"/>
    <trip id="veh183" depart="93.23" departLane="best" from="120106725#0" to="179147420#2" type="veh_passenger"/>
    <trip id="veh184" depart="93.74" departLane="best" from="-105035595#2" to="120106723#1" type="veh_passenger"/>
    <trip id="veh185" depart="94.25" departLane="best" from="128090432#1" to="26561737#0" type="veh_passenger"/>
    <trip id="veh186" depart="94.76" departLane="best" from="298742292#8" to="131827642#5" type="veh_passenger"/>
    <trip id="veh187" depart="95.27" departLane="best" from="130964408#5" to="105207841#1" type="veh_passenger"/>
    <trip id="veh188" depart="95.78" departLane="best" from="133323226#1" to="547767666#1" type="veh_passenger"/>
    <trip id="veh189" depart="96.29" departLane="best" from="317256461#1" to="-89817558#0" type="veh_passenger"/>
    <trip id="veh190" depart="96.80" departLane="best" from="-123501491#2" to="154343154#7" type="veh_passenger"/>
    <trip id="veh191" depart="97.31" departLane="best" from="298742249#0" to="122892035#8" type="veh_passenger"/>
    <trip id="veh192" depart="97.82" departLane="best" from="317256477#8" to="317256449#13" type="veh_passenger"/>
    <trip id="veh193" depart="98.33" departLane="best" from="30576543#4" to="119538430#2" type="veh_passenger"/>
    <trip id="veh194" depart="98.84" departLane="best" from="105035595#3" to="-120104813#1" type="veh_passenger"/>
    <trip id="veh195" depart="99.35" departLane="best" from="119662640#4" to="133323226#0" type="veh_passenger"/>
    <trip id="veh196" depart="99.86" departLane="best" from="382919223" to="-123501482#0" type="veh_passenger"/>
    <trip id="veh197" depart="100.37" departLane="best" from="123501492#3" to="298742245#9" type="veh_passenger"/>
    <trip id="veh198" depart="100.88" departLane="best" from="102243756#2" to="312688118#2" type="veh_passenger"/>
    <trip id="veh199" depart="101.38" departLane="best" from="154343145#3" to="119662642#5" type="veh_passenger"/>
    <trip id="veh200" depart="101.89" departLane="best" from="298742299#0" to="-105035595#7" type="veh_passenger"/>
    <trip id="veh201" depart="102.40" departLane="best" from="317256449#13" to="317256452#1" type="veh_passenger"/>
    <trip id="veh203" depart="103.42" departLane="best" from="-89817544#2" to="89890762#4" type="veh_passenger"/>
    <trip id="veh204" depart="103.93" departLane="best" from="154343160#2" to="-122893814#2" type="veh_passenger"/>
    <trip id="veh205" depart="104.44" departLane="best" from="119662640#8" to="382919226#0" type="veh_passenger"/>
    <trip id="veh206" depart="104.95" departLane="best" from="131827641#0" to="317256461#9" type="veh_passenger"/>
    <trip id="veh207" depart="105.46" departLane="best" from="298742308#8" to="96462844#10" type="veh_passenger"/>
    <trip id="veh208" depart="105.97" departLane="best" from="284557020#0" to="89817573#0" type="veh_passenger"/>
    <trip id="veh210" depart="106.99" departLane="best" from="312688123#4" to="154343151#1" type="veh_passenger"/>
    <trip id="veh211" depart="107.50" departLane="best" from="317256480#8" to="179147420#2" type="veh_passenger"/>
    <trip id="veh212" depart="108.01" departLane="best" from="547767665#3" to="317256448#2" type="veh_passenger"/>
    <trip id="veh213" depart="108.52" departLane="best" from="133323227#0" to="119884167#17" type="veh_passenger"/>
    <trip id="veh214" depart="109.03" departLane="best" from="119662640#6" to="298742249#4-AddedOnRampEdge" type="veh_passenger"/>
    <trip id="veh215" depart="109.54" departLane="best" from="317256450#0" to="154343160#2" type="veh_passenger"/>
    <trip id="veh216" depart="110.05" departLane="best" from="298742245#8" to="120104813#1" type="veh_passenger"/>
    <trip id="veh217" depart="110.56" departLane="best" from="-123501482#3" to="120106723#0" type="veh_passenger"/>
    <trip id="veh218" depart="111.06" departLane="best" from="119884167#2" to="122614524#2" type="veh_passenger"/>
    <trip id="veh219" depart="111.57" departLane="best" from="172366370" to="-227603833#2" type="veh_passenger"/>
    <trip id="veh220" depart="112.08" departLane="best" from="105207846#2" to="312688115#8" type="veh_passenger"/>
    <trip id="veh221" depart="112.59" departLane="best" from="312688119#5" to="-122893816#3" type="veh_passenger"/>
    <trip id="veh222" depart="113.10" departLane="best" from="123501488#1" to="172366196" type="veh_passenger"/>
    <trip id="veh223" depart="113.61" departLane="best" from="123501494#2" to="547767667#0" type="veh_passenger"/>
    <trip id="veh224" depart="114.12" departLane="best" from="26561866" to="312688118#1" type="veh_passenger"/>
    <trip id="veh225" depart="114.63" departLane="best" from="408645630#0" to="317256450#0" type="veh_passenger"/>
    <trip id="veh226" depart="115.14" departLane="best" from="122893815#7" to="-105048933" type="veh_passenger"/>
    <trip id="veh227" depart="115.65" departLane="best" from="122893807#1" to="317256449#16" type="veh_passenger"/>
    <trip id="veh228" depart="116.16" departLane="best" from="382919226#3" to="89817577" type="veh_passenger"/>
    <trip id="veh230" depart="117.18" departLane="best" from="179149931#0" to="284557033#4" type="veh_passenger"/>
    <trip id="veh231" depart="117.69" departLane="best" from="105207818#0" to="105207846#0" type="veh_passenger"/>
    <trip id="veh232" depart="118.20" departLane="best" from="130964408#0" to="-120104821#2" type="veh_passenger"/>
    <trip id="veh233" depart="118.71" departLane="best" from="123501487#0" to="-547767666#4" type="veh_passenger"/>
    <trip id="veh234" depart="119.22" departLane="best" from="132475371" to="-172366369" type="veh_passenger"/>
    <trip id="veh235" depart="119.73" departLane="best" from="298742245#3" to="-120104821#0" type="veh_passenger"/>
    <trip id="veh236" depart="120.23" departLane="best" from="123498421#1" to="179393210#4" type="veh_passenger"/>
    <trip id="veh237" depart="120.74" departLane="best" from="-120104821#2" to="298742249#8" type="veh_passenger"/>
    <trip id="veh238" depart="121.25" departLane="best" from="-172366369" to="131827642#1" type="veh_passenger"/>
    <trip id="veh239" depart="121.76" departLane="best" from="-122893814#2" to="122893816#5" type="veh_passenger"/>
    <trip id="veh240" depart="122.27" departLane="best" from="105048945#4" to="122817972#1" type="veh_passenger"/>
    <trip id="veh241" depart="122.78" departLane="best" from="317256449#5" to="122893816#5" type="veh_passenger"/>
    <trip id="veh242" depart="123.29" departLane="best" from="317256449#14" to="317256483#11" type="veh_passenger"/>
    <trip id="veh243" depart="123.80" departLane="best" from="119662642#2" to="-123501491#1" type="veh_passenger"/>
    <trip id="veh244" depart="124.31" departLane="best" from="-119872249" to="155823521#4" type="veh_passenger"/>
    <trip id="veh245" depart="124.82" departLane="best" from="298742292#2" to="317256459#1" type="veh_passenger"/>
    <trip id="veh246" depart="125.33" departLane="best" from="298742292#5" to="317256449#17" type="veh_passenger"/>
    <trip id="veh247" depart="125.84" departLane="best" from="89817572#1" to="105048945#5" type="veh_passenger"/>
    <trip id="veh248" depart="126.35" departLane="best" from="-119884164" to="-547767657#2" type="veh_passenger"/>
    <trip id="veh249" depart="126.86" departLane="best" from="-154343156#1" to="298742308#8" type="veh_passenger"/>
    <trip id="veh250" depart="127.37" departLane="best" from="180890626#4" to="105207842#3" type="veh_passenger"/>
    <trip id="veh251" depart="127.88" departLane="best" from="312688118#8" to="317256450#1" type="veh_passenger"/>
    <trip id="veh252" depart="128.39" departLane="best" from="-547767661#3" to="284769918#1" type="veh_passenger"/>
    <trip id="veh253" depart="128.90" departLane="best" from="317256449#10" to="-132634126#4" type="veh_passenger"/>
    <trip id="veh254" depart="129.41" departLane="best" from="317256477#9" to="89930944" type="veh_passenger"/>
    <trip id="veh255" depart="129.91" departLane="best" from="-130964408#2" to="-120104818" type="veh_passenger"/>
    <trip id="veh256" depart="130.42" departLane="best" from="120108387#1" to="30576543#8" type="veh_passenger"/>
    <trip id="veh257" depart="130.93" departLane="best" from="89890762#2" to="123501482#3" type="veh_passenger"/>
    <trip id="veh258" depart="131.44" departLane="best" from="312688122#7" to="-123501482#3" type="veh_passenger"/>
    <trip id="veh259" depart="131.95" departLane="best" from="312688115#7" to="298742245#7" type="veh_passenger"/>
    <trip id="veh260" depart="132.46" departLane="best" from="-130921820#1" to="317256452#3" type="veh_passenger"/>
    <trip id="veh261" depart="132.97" departLane="best" from="382919226#0" to="284557020#3" type="veh_passenger"/>
    <trip id="veh262" depart="133.48" departLane="best" from="128090431" to="122893815#2" type="veh_passenger"/>
    <trip id="veh263" depart="133.99" departLane="best" from="154343154#1" to="122893805#1" type="veh_passenger"/>
    <trip id="veh264" depart="134.50" departLane="best" from="382919223" to="317256480#13" type="veh_passenger"/>
    <trip id="veh265" depart="135.01" departLane="best" from="-130964408#11" to="89890798#1" type="veh_passenger"/>
    <trip id="veh266" depart="135.52" departLane="best" from="298742249#3" to="317256480#8" type="veh_passenger"/>