<?xml version="1.0" encoding="UTF-8"?>

<!-- generated on 09/07/18 13:26:23 by Eclipse SUMO netedit Version 1.0.0
<configuration xmlns:xsi="http://www.w3.org/2001/XMLSchema-instance" xsi:noNamespaceSchemaLocation="http://sumo.dlr.de/xsd/netconvertConfiguration.xsd">

    <input>
        <type-files value="C:\Program%20Files%20(x86)\Eclipse\Sumo\data\typemap\osmNetconvert.typ.xml"/>
        <osm-files value="osm_bbox.osm.xml"/>
    </input>

    <output>
        <output-file value="osm.net.xml"/>
        <output.street-names value="true"/>
        <output.original-names value="true"/>
    </output>

    <projection>
        <proj.utm value="true"/>
    </projection>

    <processing>
        <geometry.remove value="true"/>
        <offset.disable-normalization value="true"/>
        <roundabouts.guess value="true"/>
    </processing>

    <tls_building>
        <tls.discard-simple value="true"/>
        <tls.join value="true"/>
        <tls.guess-signals value="true"/>
        <tls.default-type value="actuated"/>
    </tls_building>

    <ramp_guessing>
        <ramps.guess value="true"/>
    </ramp_guessing>

    <junctions>
        <no-turnarounds value="true"/>
        <junctions.join value="true"/>
        <junctions.corner-detail value="5"/>
    </junctions>

    <report>
        <verbose value="true"/>
    </report>

</configuration>
-->

<net version="1.0" junctionCornerDetail="5" limitTurnSpeed="5.50" xmlns:xsi="http://www.w3.org/2001/XMLSchema-instance" xsi:noNamespaceSchemaLocation="http://sumo.dlr.de/xsd/net_file.xsd">

    <location netOffset="0.00,0.00" convBoundary="661201.87,2285784.90,671445.41,2289625.05" origBoundary="-103.452143,20.663933,-103.354000,20.699177" projParameter="+proj=utm +zone=13 +ellps=WGS84 +datum=WGS84 +units=m +no_defs"/>

    <type id="highway.bridleway" priority="1" numLanes="1" speed="2.78" allow="pedestrian" oneway="1" width="2.00"/>
    <type id="highway.bus_guideway" priority="1" numLanes="1" speed="27.78" allow="bus" oneway="1"/>
    <type id="highway.cycleway" priority="1" numLanes="1" speed="8.33" allow="bicycle" oneway="0" width="1.00"/>
    <type id="highway.footway" priority="1" numLanes="1" speed="2.78" allow="pedestrian" oneway="1" width="2.00"/>
    <type id="highway.ford" priority="1" numLanes="1" speed="2.78" allow="army" oneway="0"/>
    <type id="highway.living_street" priority="3" numLanes="1" speed="2.78" disallow="tram rail_urban rail rail_electric ship" oneway="0"/>
    <type id="highway.motorway" priority="13" numLanes="2" speed="44.44" allow="private emergency authority army vip passenger hov taxi bus coach delivery truck trailer motorcycle evehicle custom1 custom2" oneway="1"/>
    <type id="highway.motorway_link" priority="12" numLanes="1" speed="22.22" allow="private emergency authority army vip passenger hov taxi bus coach delivery truck trailer motorcycle evehicle custom1 custom2" oneway="1"/>
    <type id="highway.path" priority="1" numLanes="1" speed="2.78" allow="bicycle pedestrian" oneway="1" width="2.00"/>
    <type id="highway.pedestrian" priority="1" numLanes="1" speed="2.78" allow="pedestrian" oneway="1" width="2.00"/>
    <type id="highway.primary" priority="9" numLanes="2" speed="27.78" disallow="tram rail_urban rail rail_electric ship" oneway="0"/>
    <type id="highway.primary_link" priority="8" numLanes="1" speed="22.22" disallow="tram rail_urban rail rail_electric ship" oneway="0"/>
    <type id="highway.raceway" priority="14" numLanes="2" speed="83.33" allow="vip" oneway="0"/>
    <type id="highway.residential" priority="4" numLanes="1" speed="13.89" disallow="tram rail_urban rail rail_electric ship" oneway="0"/>
    <type id="highway.secondary" priority="7" numLanes="2" speed="27.78" disallow="tram rail_urban rail rail_electric ship" oneway="0"/>
    <type id="highway.secondary_link" priority="6" numLanes="1" speed="22.22" disallow="tram rail_urban rail rail_electric ship" oneway="0"/>
    <type id="highway.service" priority="2" numLanes="1" speed="5.56" allow="delivery bicycle pedestrian" oneway="0"/>
    <type id="highway.stairs" priority="1" numLanes="1" speed="1.39" allow="pedestrian" oneway="1" width="2.00"/>
    <type id="highway.step" priority="1" numLanes="1" speed="1.39" allow="pedestrian" oneway="1" width="2.00"/>
    <type id="highway.steps" priority="1" numLanes="1" speed="1.39" allow="pedestrian" oneway="1" width="2.00"/>
    <type id="highway.tertiary" priority="6" numLanes="1" speed="22.22" disallow="tram rail_urban rail rail_electric ship" oneway="0"/>
    <type id="highway.tertiary_link" priority="5" numLanes="1" speed="22.22" disallow="tram rail_urban rail rail_electric ship" oneway="0"/>
    <type id="highway.track" priority="1" numLanes="1" speed="5.56" disallow="tram rail_urban rail rail_electric ship" oneway="0"/>
    <type id="highway.trunk" priority="11" numLanes="2" speed="27.78" disallow="tram rail_urban rail rail_electric bicycle pedestrian ship" oneway="0"/>
    <type id="highway.trunk_link" priority="10" numLanes="1" speed="22.22" disallow="tram rail_urban rail rail_electric bicycle pedestrian ship" oneway="0"/>
    <type id="highway.unclassified" priority="5" numLanes="1" speed="13.89" disallow="tram rail_urban rail rail_electric ship" oneway="0"/>
    <type id="highway.unsurfaced" priority="1" numLanes="1" speed="8.33" disallow="tram rail_urban rail rail_electric ship" oneway="0"/>
    <type id="railway.light_rail" priority="15" numLanes="1" speed="27.78" allow="rail_urban" oneway="1"/>
    <type id="railway.preserved" priority="15" numLanes="1" speed="27.78" allow="rail" oneway="1"/>
    <type id="railway.rail" priority="15" numLanes="1" speed="83.33" allow="rail rail_electric" oneway="1"/>
    <type id="railway.subway" priority="15" numLanes="1" speed="27.78" allow="rail_urban" oneway="1"/>
    <type id="railway.tram" priority="15" numLanes="1" speed="13.89" allow="tram" oneway="1"/>

    <edge id=":1041108402_0" function="internal">
        <lane id=":1041108402_0_0" index="0" disallow="tram rail_urban rail rail_electric ship" speed="9.92" length="8.76" shape="667295.36,2286807.50 667293.12,2286806.33 667291.38,2286806.01 667289.53,2286806.26 667287.00,2286806.85"/>
    </edge>
    <edge id=":1041108402_1" function="internal">
        <lane id=":1041108402_1_0" index="0" disallow="tram rail_urban rail rail_electric ship" speed="7.47" length="8.73" shape="667294.63,2286796.95 667294.39,2286799.57 667294.71,2286801.74 667295.60,2286803.48 667297.05,2286804.78"/>
    </edge>
    <edge id=":1041108402_2" function="internal">
        <lane id=":1041108402_2_0" index="0" disallow="tram rail_urban rail rail_electric ship" speed="9.20" length="13.27" shape="667294.63,2286796.95 667293.56,2286800.78 667291.93,2286803.71 667289.74,2286805.73 667287.00,2286806.85"/>
    </edge>
    <edge id=":1041108465_0" function="internal">
        <lane id=":1041108465_0_0" index="0" disallow="tram rail_urban rail rail_electric ship" speed="6.32" length="9.04" shape="667445.06,2286797.46 667443.91,2286795.22 667442.35,2286793.96 667440.36,2286793.67 667437.94,2286794.36"/>
    </edge>
    <edge id=":1041108465_1" function="internal">
        <lane id=":1041108465_1_0" index="0" disallow="tram rail_urban rail rail_electric ship" speed="13.89" length="14.62" shape="667445.06,2286797.46 667440.22,2286783.66"/>
    </edge>
    <edge id=":1041108465_2" function="internal">
        <lane id=":1041108465_2_0" index="0" disallow="tram rail_urban rail rail_electric ship" speed="8.06" length="6.02" shape="667445.06,2286797.46 667444.29,2286793.51 667444.68,2286791.55"/>
    </edge>
    <edge id=":1041108465_12" function="internal">
        <lane id=":1041108465_12_0" index="0" speed="8.06" length="8.42" shape="667444.68,2286791.55 667444.93,2286790.29 667446.99,2286787.79 667450.45,2286786.01"/>
    </edge>
    <edge id=":1041108465_3" function="internal">
        <lane id=":1041108465_3_0" index="0" disallow="tram rail_urban rail rail_electric ship" speed="6.58" length="9.27" shape="667451.48,2286789.04 667449.28,2286790.18 667447.98,2286791.79 667447.58,2286793.87 667448.08,2286796.42"/>
    </edge>
    <edge id=":1041108465_4" function="internal">
        <lane id=":1041108465_4_0" index="0" disallow="tram rail_urban rail rail_electric ship" speed="13.89" length="14.55" shape="667451.48,2286789.04 667448.01,2286790.26 667444.65,2286791.54 667441.32,2286792.89 667437.94,2286794.36"/>
    </edge>
    <edge id=":1041108465_5" function="internal">
        <lane id=":1041108465_5_0" index="0" disallow="tram rail_urban rail rail_electric ship" speed="8.05" length="14.18" shape="667451.48,2286789.04 667447.66,2286789.76 667444.51,2286789.11 667442.03,2286787.07 667440.22,2286783.66"/>
    </edge>
    <edge id=":1041108465_6" function="internal">
        <lane id=":1041108465_6_0" index="0" disallow="tram rail_urban rail rail_electric ship" speed="6.57" length="9.08" shape="667443.23,2286782.58 667444.39,2286784.76 667445.98,2286786.06 667448.00,2286786.48 667450.45,2286786.01"/>
    </edge>
    <edge id=":1041108465_7" function="internal">
        <lane id=":1041108465_7_0" index="0" disallow="tram rail_urban rail rail_electric ship" speed="13.89" length="14.67" shape="667443.23,2286782.58 667448.08,2286796.42"/>
    </edge>
    <edge id=":1041108465_8" function="internal">
        <lane id=":1041108465_8_0" index="0" disallow="tram rail_urban rail rail_electric ship" speed="8.30" length="5.98" shape="667443.23,2286782.58 667443.99,2286786.36 667443.59,2286788.44"/>
    </edge>
    <edge id=":1041108465_13" function="internal">
        <lane id=":1041108465_13_0" index="0" speed="8.30" length="8.52" shape="667443.59,2286788.44 667443.37,2286789.58 667441.35,2286792.25 667437.94,2286794.36"/>
    </edge>
    <edge id=":1041108465_9" function="internal">
        <lane id=":1041108465_9_0" index="0" disallow="tram rail_urban rail rail_electric ship" speed="6.87" length="9.60" shape="667436.64,2286791.44 667438.92,2286790.03 667440.28,2286788.27 667440.71,2286786.14 667440.22,2286783.66"/>
    </edge>
    <edge id=":1041108465_10" function="internal">
        <lane id=":1041108465_10_0" index="0" disallow="tram rail_urban rail rail_electric ship" speed="13.89" length="14.85" shape="667436.64,2286791.44 667440.06,2286789.95 667443.48,2286788.56 667446.94,2286787.25 667450.45,2286786.01"/>
    </edge>
    <edge id=":1041108465_11" function="internal">
        <lane id=":1041108465_11_0" index="0" disallow="tram rail_urban rail rail_electric ship" speed="7.85" length="14.55" shape="667436.64,2286791.44 667440.52,2286790.33 667443.72,2286790.80 667446.24,2286792.83 667448.08,2286796.42"/>
    </edge>
    <edge id=":1041108487_0" function="internal">
        <lane id=":1041108487_0_0" index="0" disallow="tram rail_urban rail rail_electric ship" speed="13.89" length="12.91" shape="667483.38,2286883.48 667480.11,2286884.51 667477.28,2286885.58 667474.53,2286886.86 667471.53,2286888.50"/>
    </edge>
    <edge id=":1041108487_1" function="internal">
        <lane id=":1041108487_1_0" index="0" disallow="tram rail_urban rail rail_electric ship" speed="8.01" length="5.45" shape="667483.38,2286883.48 667479.68,2286884.02 667478.02,2286883.61"/>
    </edge>
    <edge id=":1041108487_6" function="internal">
        <lane id=":1041108487_6_0" index="0" speed="8.01" length="8.29" shape="667478.02,2286883.61 667476.64,2286883.27 667474.28,2286881.23 667472.58,2286877.89"/>
    </edge>
    <edge id=":1041108487_2" function="internal">
        <lane id=":1041108487_2_0" index="0" disallow="tram rail_urban rail rail_electric ship" speed="6.51" length="8.75" shape="667475.61,2286876.85 667476.69,2286878.98 667478.19,2286880.28 667480.12,2286880.76 667482.48,2286880.41"/>
    </edge>
    <edge id=":1041108487_3" function="internal">
        <lane id=":1041108487_3_0" index="0" disallow="tram rail_urban rail rail_electric ship" speed="8.44" length="13.55" shape="667475.61,2286876.85 667476.35,2286880.49 667475.91,2286883.65 667474.31,2286886.32 667471.53,2286888.50"/>
    </edge>
    <edge id=":1041108487_4" function="internal">
        <lane id=":1041108487_4_0" index="0" disallow="tram rail_urban rail rail_electric ship" speed="7.02" length="9.09" shape="667469.93,2286885.73 667471.76,2286884.28 667472.82,2286882.49 667473.09,2286880.36 667472.58,2286877.89"/>
    </edge>
    <edge id=":1041108487_5" function="internal">
        <lane id=":1041108487_5_0" index="0" disallow="tram rail_urban rail rail_electric ship" speed="13.89" length="13.67" shape="667469.93,2286885.73 667473.04,2286884.04 667476.03,2286882.66 667479.10,2286881.49 667482.48,2286880.41"/>
    </edge>
    <edge id=":1041108557_0" function="internal">
        <lane id=":1041108557_0_0" index="0" disallow="tram rail_urban rail rail_electric ship" speed="6.51" length="9.12" shape="667372.76,2286855.79 667370.46,2286854.74 667368.39,2286854.68 667366.56,2286855.60 667364.97,2286857.50"/>
    </edge>
    <edge id=":1041108557_1" function="internal">
        <lane id=":1041108557_1_0" index="0" disallow="tram rail_urban rail rail_electric ship" speed="13.89" length="14.52" shape="667372.76,2286855.79 667360.47,2286848.05"/>
    </edge>
    <edge id=":1041108557_2" function="internal">
        <lane id=":1041108557_2_0" index="0" disallow="tram rail_urban rail rail_electric ship" speed="7.92" length="5.89" shape="667372.76,2286855.79 667369.75,2286853.21 667368.91,2286851.48"/>
    </edge>
    <edge id=":1041108557_12" function="internal">
        <lane id=":1041108557_12_0" index="0" speed="7.92" length="8.48" shape="667368.91,2286851.48 667368.34,2286850.31 667368.54,2286847.09 667370.33,2286843.56"/>
    </edge>
    <edge id=":1041108557_3" function="internal">
        <lane id=":1041108557_3_0" index="0" disallow="tram rail_urban rail rail_electric ship" speed="6.41" length="9.04" shape="667372.95,2286845.40 667371.82,2286847.62 667371.70,2286849.64 667372.58,2286851.47 667374.48,2286853.09"/>
    </edge>
    <edge id=":1041108557_4" function="internal">
        <lane id=":1041108557_4_0" index="0" disallow="tram rail_urban rail rail_electric ship" speed="13.89" length="14.49" shape="667372.95,2286845.40 667364.97,2286857.50"/>
    </edge>
    <edge id=":1041108557_5" function="internal">
        <lane id=":1041108557_5_0" index="0" disallow="tram rail_urban rail rail_electric ship" speed="8.22" length="14.38" shape="667372.95,2286845.40 667370.26,2286848.28 667367.28,2286849.69 667364.02,2286849.61 667360.47,2286848.05"/>
    </edge>
    <edge id=":1041108557_6" function="internal">
        <lane id=":1041108557_6_0" index="0" disallow="tram rail_urban rail rail_electric ship" speed="6.77" length="9.43" shape="667362.16,2286845.33 667364.48,2286846.35 667366.61,2286846.39 667368.56,2286845.46 667370.33,2286843.56"/>
    </edge>
    <edge id=":1041108557_7" function="internal">
        <lane id=":1041108557_7_0" index="0" disallow="tram rail_urban rail rail_electric ship" speed="13.89" length="14.55" shape="667362.16,2286845.33 667374.48,2286853.09"/>
    </edge>
    <edge id=":1041108557_8" function="internal">
        <lane id=":1041108557_8_0" index="0" disallow="tram rail_urban rail rail_electric ship" speed="8.02" length="5.97" shape="667362.16,2286845.33 667365.13,2286847.84 667366.08,2286849.69"/>
    </edge>
    <edge id=":1041108557_13" function="internal">
        <lane id=":1041108557_13_0" index="0" speed="8.02" length="8.25" shape="667366.08,2286849.69 667366.59,2286850.70 667366.54,2286853.92 667364.97,2286857.50"/>
    </edge>
    <edge id=":1041108557_9" function="internal">
        <lane id=":1041108557_9_0" index="0" disallow="tram rail_urban rail rail_electric ship" speed="6.53" length="9.08" shape="667362.25,2286855.81 667363.25,2286853.53 667363.29,2286851.47 667362.36,2286849.64 667360.47,2286848.05"/>
    </edge>
    <edge id=":1041108557_10" function="internal">
        <lane id=":1041108557_10_0" index="0" disallow="tram rail_urban rail rail_electric ship" speed="13.89" length="14.68" shape="667362.25,2286855.81 667370.33,2286843.56"/>
    </edge>
    <edge id=":1041108557_11" function="internal">
        <lane id=":1041108557_11_0" index="0" disallow="tram rail_urban rail rail_electric ship" speed="8.00" length="14.33" shape="667362.25,2286855.81 667364.76,2286852.82 667367.63,2286851.36 667370.87,2286851.45 667374.48,2286853.09"/>
    </edge>
    <edge id=":1041108563_0" function="internal">
        <lane id=":1041108563_0_0" index="0" disallow="tram rail_urban rail rail_electric ship" speed="6.47" length="9.03" shape="667280.02,2286925.86 667280.30,2286928.33 667281.31,2286930.09 667283.04,2286931.17 667285.49,2286931.54"/>
    </edge>
    <edge id=":1041108563_1" function="internal">
        <lane id=":1041108563_1_0" index="0" disallow="tram rail_urban rail rail_electric ship" speed="6.59" length="9.13" shape="667271.10,2286931.44 667273.55,2286931.10 667275.31,2286930.04 667276.40,2286928.26 667276.82,2286925.78"/>
    </edge>
    <edge id=":1041108563_2" function="internal">
        <lane id=":1041108563_2_0" index="0" disallow="tram rail_urban rail rail_electric ship" speed="13.89" length="14.39" shape="667271.10,2286931.44 667285.49,2286931.54"/>
    </edge>
    <edge id=":1041108640_0" function="internal">
        <lane id=":1041108640_0_0" index="0" disallow="tram rail_urban rail rail_electric ship" speed="11.09" length="15.40" shape="667722.90,2286795.90 667720.04,2286798.30 667717.98,2286801.29 667716.70,2286804.88 667716.20,2286809.07"/>
    </edge>
    <edge id=":1041108640_1" function="internal">
        <lane id=":1041108640_1_0" index="0" disallow="tram rail_urban rail rail_electric ship" speed="13.89" length="18.46" shape="667722.90,2286795.90 667707.24,2286805.67"/>
    </edge>
    <edge id=":1041108640_2" function="internal">
        <lane id=":1041108640_2_0" index="0" disallow="tram rail_urban rail rail_electric ship" speed="7.52" length="6.39" shape="667722.90,2286795.90 667718.75,2286797.82 667716.94,2286797.74"/>
    </edge>
    <edge id=":1041108640_12" function="internal">
        <lane id=":1041108640_12_0" index="0" speed="7.52" length="9.37" shape="667716.94,2286797.74 667715.45,2286797.67 667712.99,2286795.46 667711.38,2286791.18"/>
    </edge>
    <edge id=":1041108640_3" function="internal">
        <lane id=":1041108640_3_0" index="0" disallow="tram rail_urban rail rail_electric ship" speed="5.88" length="9.11" shape="667714.50,2286790.48 667715.43,2286792.96 667716.86,2286794.24 667718.77,2286794.32 667721.17,2286793.21"/>
    </edge>
    <edge id=":1041108640_4" function="internal">
        <lane id=":1041108640_4_0" index="0" disallow="tram rail_urban rail rail_electric ship" speed="13.89" length="18.70" shape="667714.50,2286790.48 667715.24,2286794.74 667715.80,2286799.73 667716.14,2286804.74 667716.20,2286809.07"/>
    </edge>
    <edge id=":1041108640_5" function="internal">
        <lane id=":1041108640_5_0" index="0" disallow="tram rail_urban rail rail_electric ship" speed="10.27" length="18.11" shape="667714.50,2286790.48 667714.85,2286795.00 667713.75,2286799.03 667711.22,2286802.59 667707.24,2286805.67"/>
    </edge>
    <edge id=":1041108640_6" function="internal">
        <lane id=":1041108640_6_0" index="0" disallow="tram rail_urban rail rail_electric ship" speed="9.12" length="14.09" shape="667705.58,2286802.94 667708.73,2286800.51 667710.74,2286797.75 667711.63,2286794.64 667711.38,2286791.18"/>
    </edge>
    <edge id=":1041108640_7" function="internal">
        <lane id=":1041108640_7_0" index="0" disallow="tram rail_urban rail rail_electric ship" speed="13.89" length="18.37" shape="667705.58,2286802.94 667721.17,2286793.21"/>
    </edge>
    <edge id=":1041108640_8" function="internal">
        <lane id=":1041108640_8_0" index="0" disallow="tram rail_urban rail rail_electric ship" speed="7.39" length="6.60" shape="667705.58,2286802.94 667710.33,2286800.84 667711.74,2286800.98"/>
    </edge>
    <edge id=":1041108640_13" function="internal">
        <lane id=":1041108640_13_0" index="0" speed="7.39" length="10.52" shape="667711.74,2286800.98 667713.69,2286801.17 667715.64,2286803.91 667716.20,2286809.07"/>
    </edge>
    <edge id=":1041108640_9" function="internal">
        <lane id=":1041108640_9_0" index="0" disallow="tram rail_urban rail rail_electric ship" speed="5.63" length="9.29" shape="667713.00,2286809.00 667712.70,2286806.20 667711.64,2286804.71 667709.82,2286804.54 667707.24,2286805.67"/>
    </edge>
    <edge id=":1041108640_10" function="internal">
        <lane id=":1041108640_10_0" index="0" disallow="tram rail_urban rail rail_electric ship" speed="13.89" length="17.92" shape="667713.00,2286809.00 667712.95,2286804.80 667712.64,2286800.05 667712.11,2286795.32 667711.38,2286791.18"/>
    </edge>
    <edge id=":1041108640_11" function="internal">
        <lane id=":1041108640_11_0" index="0" disallow="tram rail_urban rail rail_electric ship" speed="12.12" length="18.52" shape="667713.00,2286809.00 667713.60,2286804.01 667715.16,2286799.72 667717.68,2286796.12 667721.17,2286793.21"/>
    </edge>
    <edge id=":1041108684_0" function="internal">
        <lane id=":1041108684_0_0" index="0" disallow="tram rail_urban rail rail_electric ship" speed="6.62" length="8.97" shape="667294.35,2286779.13 667292.73,2286780.61 667291.99,2286782.43 667292.14,2286784.57 667293.18,2286787.03"/>
    </edge>
    <edge id=":1041108684_1" function="internal">
        <lane id=":1041108684_1_0" index="0" disallow="tram rail_urban rail rail_electric ship" speed="13.89" length="12.00" shape="667281.32,2286779.75 667284.60,2286779.60 667287.27,2286779.10 667289.79,2286778.09 667292.63,2286776.43"/>
    </edge>
    <edge id=":1041108684_2" function="internal">
        <lane id=":1041108684_2_0" index="0" disallow="tram rail_urban rail rail_electric ship" speed="10.25" length="14.63" shape="667281.32,2286779.75 667284.96,2286780.19 667288.15,2286781.55 667290.89,2286783.83 667293.18,2286787.03"/>
    </edge>
    <edge id=":1041108734_0" function="internal">
        <lane id=":1041108734_0_0" index="0" disallow="tram rail_urban rail rail_electric ship" speed="6.66" length="7.75" shape="667286.80,2286806.90 667285.19,2286807.58 667284.01,2286808.81 667283.28,2286810.60 667282.99,2286812.95"/>
    </edge>
    <edge id=":1041108734_1" function="internal">
        <lane id=":1041108734_1_0" index="0" disallow="tram rail_urban rail rail_electric ship" speed="12.04" length="12.07" shape="667286.80,2286806.90 667283.53,2286807.67 667280.75,2286808.12 667278.08,2286807.92 667275.11,2286806.69"/>
    </edge>
    <edge id=":1041108734_2" function="internal">
        <lane id=":1041108734_2_0" index="0" disallow="tram rail_urban rail rail_electric ship" speed="7.68" length="8.12" shape="667279.79,2286812.86 667279.54,2286811.18 667278.67,2286809.59 667277.19,2286808.10 667275.11,2286806.69"/>
    </edge>
    <edge id=":1041108758_0" function="internal">
        <lane id=":1041108758_0_0" index="0" disallow="tram rail_urban rail rail_electric ship" speed="13.89" length="12.66" shape="667520.07,2286886.79 667516.98,2286885.40 667514.23,2286884.35 667511.40,2286883.52 667508.10,2286882.79"/>
    </edge>
    <edge id=":1041108758_1" function="internal">
        <lane id=":1041108758_1_0" index="0" disallow="tram rail_urban rail rail_electric ship" speed="8.02" length="5.40" shape="667520.07,2286886.79 667517.01,2286884.77 667516.02,2286883.34"/>
    </edge>
    <edge id=":1041108758_6" function="internal">
        <lane id=":1041108758_6_0" index="0" speed="8.02" length="8.09" shape="667516.02,2286883.34 667515.26,2286882.24 667514.80,2286879.19 667515.65,2286875.63"/>
    </edge>
    <edge id=":1041108758_2" function="internal">
        <lane id=":1041108758_2_0" index="0" disallow="tram rail_urban rail rail_electric ship" speed="6.52" length="8.58" shape="667518.63,2286876.80 667518.09,2286879.06 667518.38,2286881.00 667519.50,2286882.61 667521.44,2286883.90"/>
    </edge>
    <edge id=":1041108758_3" function="internal">
        <lane id=":1041108758_3_0" index="0" disallow="tram rail_urban rail rail_electric ship" speed="8.33" length="13.34" shape="667518.63,2286876.80 667516.87,2286879.98 667514.53,2286882.04 667511.60,2286882.98 667508.10,2286882.79"/>
    </edge>
    <edge id=":1041108758_4" function="internal">
        <lane id=":1041108758_4_0" index="0" disallow="tram rail_urban rail rail_electric ship" speed="6.88" length="8.82" shape="667508.72,2286879.65 667511.01,2286879.77 667512.93,2286879.14 667514.48,2286877.76 667515.65,2286875.63"/>
    </edge>
    <edge id=":1041108758_5" function="internal">
        <lane id=":1041108758_5_0" index="0" disallow="tram rail_urban rail rail_electric ship" speed="13.89" length="13.45" shape="667508.72,2286879.65 667512.14,2286880.42 667515.22,2286881.33 667518.24,2286882.47 667521.44,2286883.90"/>
    </edge>
    <edge id=":1041108769_0" function="internal">
        <lane id=":1041108769_0_0" index="0" disallow="tram rail_urban rail rail_electric ship" speed="6.39" length="9.07" shape="667557.02,2286794.38 667554.62,2286793.67 667552.61,2286793.92 667550.99,2286795.14 667549.75,2286797.33"/>
    </edge>
    <edge id=":1041108769_1" function="internal">
        <lane id=":1041108769_1_0" index="0" disallow="tram rail_urban rail rail_electric ship" speed="13.89" length="14.60" shape="667557.02,2286794.38 667553.64,2286792.88 667550.29,2286791.53 667546.90,2286790.29 667543.40,2286789.14"/>
    </edge>
    <edge id=":1041108769_2" function="internal">
        <lane id=":1041108769_2_0" index="0" disallow="tram rail_urban rail rail_electric ship" speed="8.20" length="14.28" shape="667557.02,2286794.38 667553.67,2286792.25 667551.73,2286789.59 667551.19,2286786.41 667552.05,2286782.71"/>
    </edge>
    <edge id=":1041108769_3" function="internal">
        <lane id=":1041108769_3_0" index="0" disallow="tram rail_urban rail rail_electric ship" speed="6.74" length="9.34" shape="667555.03,2286783.88 667554.48,2286786.27 667554.85,2286788.34 667556.14,2286790.07 667558.36,2286791.47"/>
    </edge>
    <edge id=":1041108769_4" function="internal">
        <lane id=":1041108769_4_0" index="0" disallow="tram rail_urban rail rail_electric ship" speed="13.89" length="14.45" shape="667555.03,2286783.88 667549.75,2286797.33"/>
    </edge>
    <edge id=":1041108769_5" function="internal">
        <lane id=":1041108769_5_0" index="0" disallow="tram rail_urban rail rail_electric ship" speed="8.25" length="5.82" shape="667555.03,2286783.88 667553.13,2286787.18 667551.53,2286788.41"/>
    </edge>
    <edge id=":1041108769_12" function="internal">
        <lane id=":1041108769_12_0" index="0" speed="8.25" length="8.51" shape="667551.53,2286788.41 667550.56,2286789.15 667547.32,2286789.80 667543.40,2286789.14"/>
    </edge>
    <edge id=":1041108769_6" function="internal">
        <lane id=":1041108769_6_0" index="0" disallow="tram rail_urban rail rail_electric ship" speed="6.81" length="9.44" shape="667544.35,2286786.08 667546.96,2286786.54 667549.11,2286786.12 667550.81,2286784.85 667552.05,2286782.71"/>
    </edge>
    <edge id=":1041108769_7" function="internal">
        <lane id=":1041108769_7_0" index="0" disallow="tram rail_urban rail rail_electric ship" speed="13.89" length="15.01" shape="667544.35,2286786.08 667547.92,2286787.26 667551.44,2286788.55 667554.92,2286789.96 667558.36,2286791.47"/>
    </edge>
    <edge id=":1041108769_8" function="internal">
        <lane id=":1041108769_8_0" index="0" disallow="tram rail_urban rail rail_electric ship" speed="7.88" length="14.47" shape="667544.35,2286786.08 667547.97,2286787.81 667550.07,2286790.26 667550.66,2286793.43 667549.75,2286797.33"/>
    </edge>
    <edge id=":1041108769_9" function="internal">
        <lane id=":1041108769_9_0" index="0" disallow="tram rail_urban rail rail_electric ship" speed="6.36" length="9.04" shape="667546.77,2286796.16 667547.34,2286793.73 667546.97,2286791.75 667545.66,2286790.21 667543.40,2286789.14"/>
    </edge>
    <edge id=":1041108769_10" function="internal">
        <lane id=":1041108769_10_0" index="0" disallow="tram rail_urban rail rail_electric ship" speed="13.89" length="14.46" shape="667546.77,2286796.16 667552.05,2286782.71"/>
    </edge>
    <edge id=":1041108769_11" function="internal">
        <lane id=":1041108769_11_0" index="0" disallow="tram rail_urban rail rail_electric ship" speed="7.91" length="5.97" shape="667546.77,2286796.16 667548.74,2286792.68 667550.32,2286791.50"/>
    </edge>
    <edge id=":1041108769_13" function="internal">
        <lane id=":1041108769_13_0" index="0" speed="7.91" length="8.48" shape="667550.32,2286791.50 667551.33,2286790.74 667554.54,2286790.34 667558.36,2286791.47"/>
    </edge>
    <edge id=":1041108788_0" function="internal">
        <lane id=":1041108788_0_0" index="0" disallow="tram rail_urban rail rail_electric ship" speed="13.89" length="11.36" shape="666750.91,2286957.59 666739.56,2286957.53"/>
    </edge>
    <edge id=":1041108788_1" function="internal">
        <lane id=":1041108788_1_0" index="0" disallow="tram rail_urban rail rail_electric ship" speed="5.96" length="9.09" shape="666750.91,2286957.59 666748.33,2286957.22 666746.75,2286956.11 666746.17,2286954.26 666746.58,2286951.69"/>
    </edge>
    <edge id=":1041108791_0" function="internal">
        <lane id=":1041108791_0_0" index="0" disallow="tram rail_urban rail rail_electric ship" speed="6.54" length="9.16" shape="667629.64,2286859.29 667628.03,2286857.39 667626.19,2286856.46 667624.12,2286856.51 667621.80,2286857.54"/>
    </edge>