<?xml version="1.0" encoding="UTF-8"?>

<!-- generated on 09/04/18 12:19:32 by Eclipse SUMO netedit Version 1.0.0
<configuration xmlns:xsi="http://www.w3.org/2001/XMLSchema-instance" xsi:noNamespaceSchemaLocation="http://sumo.dlr.de/xsd/netconvertConfiguration.xsd">

    <output>
        <output-file value="C:\Users\Public\Documents\GitRepos\SUMO\2_InitialTraining\myTraining.net.xml"/>
    </output>

    <processing>
        <offset.disable-normalization value="true"/>
    </processing>

    <junctions>
        <no-turnarounds value="true"/>
    </junctions>

</configuration>
-->

<net version="1.0" junctionCornerDetail="5" limitTurnSpeed="5.50" xmlns:xsi="http://www.w3.org/2001/XMLSchema-instance" xsi:noNamespaceSchemaLocation="http://sumo.dlr.de/xsd/net_file.xsd">

    <location netOffset="0.00,0.00" convBoundary="1555.86,-605.18,1887.46,-546.60" origBoundary="10000000000.00,10000000000.00,-10000000000.00,-10000000000.00" projParameter="!"/>

    <edge id=":1_0" function="internal">
        <lane id=":1_0_0" index="0" speed="13.89" length="8.02" shape="1683.87,-539.73 1675.61,-539.88"/>
        <lane id=":1_0_1" index="1" speed="13.89" length="8.02" shape="1683.81,-542.93 1675.79,-543.08"/>
        <lane id=":1_0_2" index="2" speed="13.89" length="8.02" shape="1683.75,-546.13 1675.96,-546.27"/>
    </edge>
    <edge id=":1_3" function="internal">
        <lane id=":1_3_0" index="0" speed="13.89" length="7.66" shape="1676.31,-552.66 1678.55,-553.04 1679.94,-554.09 1681.33,-555.19 1683.57,-555.73"/>
        <lane id=":1_3_1" index="1" speed="13.89" length="7.66" shape="1676.31,-552.66 1683.63,-552.53"/>
        <lane id=":1_3_2" index="2" speed="13.89" length="7.66" shape="1676.13,-549.47 1683.69,-549.33"/>
    </edge>
    <edge id=":2_0" function="internal">
        <lane id=":2_0_0" index="0" speed="13.89" length="7.84" shape="1679.79,-595.79 1672.05,-595.81"/>
        <lane id=":2_0_1" index="1" speed="13.89" length="7.84" shape="1679.85,-598.99 1672.01,-599.01"/>
        <lane id=":2_0_2" index="2" speed="13.89" length="7.84" shape="1679.91,-602.19 1671.97,-602.21"/>
    </edge>
    <edge id=":2_3" function="internal">
        <lane id=":2_3_0" index="0" speed="13.89" length="8.37" shape="1671.90,-608.61 1674.41,-609.14 1675.99,-610.24 1677.56,-611.33 1680.07,-611.78"/>
        <lane id=":2_3_1" index="1" speed="13.89" length="8.37" shape="1671.90,-608.61 1680.02,-608.58"/>
        <lane id=":2_3_2" index="2" speed="13.89" length="8.37" shape="1671.94,-605.41 1679.96,-605.38"/>
    </edge>
    <edge id=":3_0" function="internal">
        <lane id=":3_0_0" index="0" speed="6.51" length="9.00" shape="1765.27,-594.53 1762.84,-594.18 1761.09,-593.14 1760.04,-591.40 1759.68,-588.96"/>
    </edge>
    <edge id=":3_1" function="internal">
        <lane id=":3_1_0" index="0" speed="13.89" length="27.08" shape="1765.27,-594.53 1738.14,-594.77"/>
        <lane id=":3_1_1" index="1" speed="13.89" length="27.08" shape="1765.27,-597.73 1738.20,-597.97"/>
        <lane id=":3_1_2" index="2" speed="13.89" length="27.08" shape="1765.27,-600.93 1738.26,-601.17"/>
    </edge>
    <edge id=":3_4" function="internal">
        <lane id=":3_4_0" index="0" speed="13.89" length="26.91" shape="1738.42,-610.76 1765.27,-610.53"/>
        <lane id=":3_4_1" index="1" speed="13.89" length="26.91" shape="1738.37,-607.56 1765.27,-607.33"/>
        <lane id=":3_4_2" index="2" speed="13.89" length="26.91" shape="1738.31,-604.36 1765.27,-604.13"/>
    </edge>
    <edge id=":3_7" function="internal">
        <lane id=":3_7_0" index="0" speed="10.91" length="9.35" shape="1738.31,-604.36 1746.29,-603.28 1747.45,-602.69"/>
    </edge>
    <edge id=":3_8" function="internal">
        <lane id=":3_8_0" index="0" speed="10.39" length="7.81" shape="1738.31,-604.36 1744.89,-603.31 1745.86,-602.70"/>
    </edge>
    <edge id=":3_12" function="internal">
        <lane id=":3_12_0" index="0" speed="10.91" length="17.65" shape="1747.45,-602.69 1751.97,-600.36 1755.37,-595.59 1756.48,-588.97"/>
    </edge>
    <edge id=":3_13" function="internal">
        <lane id=":3_13_0" index="0" speed="10.39" length="16.59" shape="1745.86,-602.70 1749.57,-600.39 1752.37,-595.62 1753.28,-588.99"/>
    </edge>
    <edge id=":3_9" function="internal">
        <lane id=":3_9_0" index="0" speed="6.54" length="9.06" shape="1743.68,-589.04 1743.34,-591.51 1742.31,-593.29 1740.57,-594.37 1738.14,-594.77"/>
    </edge>
    <edge id=":3_10" function="internal">
        <lane id=":3_10_0" index="0" speed="8.03" length="14.17" shape="1746.88,-589.02 1746.35,-592.88 1744.73,-595.65 1742.01,-597.35 1738.20,-597.97"/>
    </edge>
    <edge id=":3_11" function="internal">
        <lane id=":3_11_0" index="0" speed="10.36" length="24.43" shape="1750.08,-589.00 1751.05,-595.62 1753.91,-600.35 1758.65,-603.18 1765.27,-604.13"/>
    </edge>
    <edge id=":4_0" function="internal">
        <lane id=":4_0_0" index="0" speed="13.89" length="8.23" shape="1808.99,-597.70 1806.54,-597.22 1805.01,-596.13 1803.48,-595.03 1801.03,-594.53"/>
        <lane id=":4_0_1" index="1" speed="13.89" length="8.23" shape="1808.99,-597.70 1801.03,-597.73"/>
        <lane id=":4_0_2" index="2" speed="13.89" length="8.23" shape="1809.01,-600.90 1801.03,-600.93"/>
    </edge>
    <edge id=":4_3" function="internal">
        <lane id=":4_3_0" index="0" speed="13.89" length="8.03" shape="1801.03,-610.53 1809.07,-610.50"/>
        <lane id=":4_3_1" index="1" speed="13.89" length="8.03" shape="1801.03,-607.33 1809.05,-607.30"/>
        <lane id=":4_3_2" index="2" speed="13.89" length="8.03" shape="1801.03,-604.13 1809.03,-604.10"/>
    </edge>
    <edge id=":5_0" function="internal">
        <lane id=":5_0_0" index="0" speed="13.89" length="8.22" shape="1808.30,-542.90 1805.80,-542.21 1804.25,-541.03 1802.69,-539.94 1800.19,-539.51"/>
        <lane id=":5_0_1" index="1" speed="13.89" length="8.22" shape="1808.30,-542.90 1805.92,-542.72 1804.29,-542.64 1802.66,-542.65 1800.29,-542.71"/>
        <lane id=":5_0_2" index="2" speed="13.89" length="8.22" shape="1808.05,-546.09 1805.78,-545.92 1804.22,-545.84 1802.66,-545.85 1800.38,-545.91"/>
    </edge>
    <edge id=":5_3" function="internal">
        <lane id=":5_3_0" index="0" speed="13.89" length="6.99" shape="1800.67,-555.51 1802.64,-555.45 1803.99,-555.45 1805.34,-555.51 1807.31,-555.66"/>
        <lane id=":5_3_1" index="1" speed="13.89" length="6.99" shape="1800.57,-552.31 1802.65,-552.25 1804.07,-552.25 1805.49,-552.31 1807.55,-552.47"/>
        <lane id=":5_3_2" index="2" speed="13.89" length="6.99" shape="1800.48,-549.11 1802.65,-549.05 1804.14,-549.05 1805.63,-549.12 1807.80,-549.28"/>
    </edge>
    <edge id=":6_0" function="internal">
        <lane id=":6_0_0" index="0" speed="13.89" length="26.31" shape="1764.50,-540.59 1738.34,-540.74"/>
        <lane id=":6_0_1" index="1" speed="13.89" length="26.31" shape="1764.59,-543.79 1738.28,-543.94"/>
        <lane id=":6_0_2" index="2" speed="13.89" length="26.31" shape="1764.69,-546.99 1738.22,-547.14"/>
    </edge>
    <edge id=":6_3" function="internal">
        <lane id=":6_3_0" index="0" speed="10.89" length="9.02" shape="1764.69,-546.99 1756.81,-548.15 1755.87,-548.64"/>
    </edge>
    <edge id=":6_4" function="internal">
        <lane id=":6_4_0" index="0" speed="10.37" length="7.55" shape="1764.69,-546.99 1758.21,-548.11 1757.39,-548.63"/>
    </edge>
    <edge id=":6_12" function="internal">
        <lane id=":6_12_0" index="0" speed="10.89" length="17.66" shape="1755.87,-548.64 1751.19,-551.09 1747.84,-555.80 1746.74,-562.29"/>
    </edge>
    <edge id=":6_13" function="internal">
        <lane id=":6_13_0" index="0" speed="10.37" length="16.55" shape="1757.39,-548.63 1753.59,-551.03 1750.84,-555.76 1749.94,-562.28"/>
    </edge>
    <edge id=":6_5" function="internal">
        <lane id=":6_5_0" index="0" speed="6.52" length="8.89" shape="1759.54,-562.23 1759.87,-559.82 1760.89,-558.08 1762.59,-557.00 1764.98,-556.58"/>
    </edge>
    <edge id=":6_6" function="internal">
        <lane id=":6_6_0" index="0" speed="8.01" length="13.96" shape="1756.34,-562.25 1756.86,-558.47 1758.46,-555.73 1761.13,-554.03 1764.88,-553.38"/>
    </edge>
    <edge id=":6_7" function="internal">
        <lane id=":6_7_0" index="0" speed="10.37" length="24.10" shape="1753.14,-562.26 1752.18,-555.75 1749.38,-551.06 1744.72,-548.19 1738.22,-547.14"/>
    </edge>
    <edge id=":6_8" function="internal">
        <lane id=":6_8_0" index="0" speed="6.51" length="8.88" shape="1738.05,-556.74 1740.44,-557.12 1742.16,-558.18 1743.19,-559.91 1743.54,-562.31"/>
    </edge>
    <edge id=":6_9" function="internal">
        <lane id=":6_9_0" index="0" speed="13.89" length="26.78" shape="1738.05,-556.74 1764.98,-556.58"/>
        <lane id=":6_9_1" index="1" speed="13.89" length="26.78" shape="1738.11,-553.54 1764.88,-553.38"/>
        <lane id=":6_9_2" index="2" speed="13.89" length="26.78" shape="1738.17,-550.34 1764.79,-550.19"/>
    </edge>
    <edge id=":911_0" function="internal">
        <lane id=":911_0_0" index="0" speed="13.89" length="0.29" shape="1631.00,-542.31 1630.90,-542.31"/>
        <lane id=":911_0_1" index="1" speed="13.89" length="0.29" shape="1631.17,-545.50 1630.88,-545.51"/>
        <lane id=":911_0_2" index="2" speed="13.89" length="0.29" shape="1631.34,-548.70 1630.85,-548.71"/>
    </edge>
    <edge id=":911_3" function="internal">
        <lane id=":911_3_0" index="0" speed="13.89" length="0.78" shape="1630.81,-555.11 1631.69,-555.09"/>
        <lane id=":911_3_1" index="1" speed="13.89" length="0.78" shape="1630.83,-551.91 1631.52,-551.89"/>
    </edge>
    <edge id=":912_0" function="internal">
        <lane id=":912_0_0" index="0" speed="13.89" length="0.33" shape="1631.12,-595.33 1630.67,-595.33"/>
        <lane id=":912_0_1" index="1" speed="13.89" length="0.33" shape="1631.09,-598.53 1630.75,-598.53"/>
        <lane id=":912_0_2" index="2" speed="13.89" length="0.33" shape="1631.05,-601.73 1630.83,-601.73"/>
    </edge>
    <edge id=":912_3" function="internal">
        <lane id=":912_3_0" index="0" speed="13.89" length="0.10" shape="1630.99,-608.12 1630.97,-608.13"/>
        <lane id=":912_3_1" index="1" speed="13.89" length="0.10" shape="1630.91,-604.92 1631.01,-604.93"/>
    </edge>
    <edge id=":913_0" function="internal">
        <lane id=":913_0_0" index="0" speed="13.89" length="0.48" shape="1843.48,-597.47 1842.94,-597.47"/>
        <lane id=":913_0_1" index="1" speed="13.89" length="0.48" shape="1843.38,-600.67 1842.96,-600.67"/>
    </edge>
    <edge id=":913_2" function="internal">
        <lane id=":913_2_0" index="0" speed="13.89" length="0.20" shape="1843.03,-610.27 1843.10,-610.27"/>
        <lane id=":913_2_1" index="1" speed="13.89" length="0.20" shape="1843.01,-607.07 1843.19,-607.07"/>
        <lane id=":913_2_2" index="2" speed="13.89" length="0.20" shape="1842.98,-603.87 1843.29,-603.87"/>
    </edge>
    <edge id=":914_0" function="internal">
        <lane id=":914_0_0" index="0" speed="13.89" length="0.48" shape="1838.55,-545.22 1838.48,-545.23 1838.43,-545.23 1838.38,-545.23 1838.31,-545.22"/>
        <lane id=":914_0_1" index="1" speed="13.89" length="0.48" shape="1838.78,-548.42 1838.57,-548.43 1838.42,-548.43 1838.28,-548.43 1838.06,-548.41"/>
    </edge>
    <edge id=":914_2" function="internal">
        <lane id=":914_2_0" index="0" speed="13.89" length="1.68" shape="1837.32,-557.99 1837.96,-558.03 1838.40,-558.05 1838.84,-558.03 1839.48,-557.99"/>
        <lane id=":914_2_1" index="1" speed="13.89" length="1.68" shape="1837.57,-554.79 1838.07,-554.83 1838.41,-554.84 1838.75,-554.83 1839.25,-554.80"/>
        <lane id=":914_2_2" index="2" speed="13.89" length="1.68" shape="1837.82,-551.60 1838.17,-551.63 1838.42,-551.64 1838.66,-551.63 1839.01,-551.61"/>
    </edge>

    <edge id="D1" from="911" to="91" priority="3">
        <lane id="D1_0" index="0" speed="13.89" length="74.99" shape="1630.90,-542.31 1555.91,-541.78"/>
        <lane id="D1_1" index="1" speed="13.89" length="74.99" shape="1630.88,-545.51 1555.89,-544.98"/>
        <lane id="D1_2" index="2" speed="13.89" length="74.99" shape="1630.85,-548.71 1555.87,-548.18"/>
    </edge>
    <edge id="D2" from="91" to="911" priority="3">
        <lane id="D2_0" index="0" speed="13.89" length="74.99" shape="1555.82,-554.58 1630.81,-555.11"/>
        <lane id="D2_1" index="1" speed="13.89" length="74.99" shape="1555.85,-551.38 1630.83,-551.91"/>
    </edge>
    <edge id="D3" from="912" to="92" priority="3">
        <lane id="D3_0" index="0" speed="13.89" length="73.98" shape="1630.67,-595.33 1556.72,-597.18"/>
        <lane id="D3_1" index="1" speed="13.89" length="73.98" shape="1630.75,-598.53 1556.80,-600.38"/>
        <lane id="D3_2" index="2" speed="13.89" length="73.98" shape="1630.83,-601.73 1556.88,-603.58"/>
    </edge>
    <edge id="D4" from="92" to="912" priority="3">
        <lane id="D4_0" index="0" speed="13.89" length="73.98" shape="1557.04,-609.98 1630.99,-608.12"/>
        <lane id="D4_1" index="1" speed="13.89" length="73.98" shape="1556.96,-606.78 1630.91,-604.92"/>
    </edge>
    <edge id="D5" from="913" to="93" priority="3">
        <lane id="D5_0" index="0" speed="13.89" length="44.14" shape="1843.10,-610.27 1887.22,-611.59"/>
        <lane id="D5_1" index="1" speed="13.89" length="44.14" shape="1843.19,-607.07 1887.31,-608.39"/>
        <lane id="D5_2" index="2" speed="13.89" length="44.14" shape="1843.29,-603.87 1887.41,-605.19"/>
    </edge>
    <edge id="D6" from="93" to="913" priority="3">
        <lane id="D6_0" index="0" speed="13.89" length="44.14" shape="1887.60,-598.79 1843.48,-597.47"/>
        <lane id="D6_1" index="1" speed="13.89" length="44.14" shape="1887.50,-601.99 1843.38,-600.67"/>
    </edge>
    <edge id="D7" from="914" to="94" priority="3">
        <lane id="D7_0" index="0" speed="13.89" length="47.09" shape="1839.48,-557.99 1886.45,-554.58"/>
        <lane id="D7_1" index="1" speed="13.89" length="47.09" shape="1839.25,-554.80 1886.21,-551.39"/>
        <lane id="D7_2" index="2" speed="13.89" length="47.09" shape="1839.01,-551.61 1885.98,-548.20"/>
    </edge>
    <edge id="D8" from="94" to="914" priority="3">
        <lane id="D8_0" index="0" speed="13.89" length="47.09" shape="1885.52,-541.81 1838.55,-545.22"/>
        <lane id="D8_1" index="1" speed="13.89" length="47.09" shape="1885.75,-545.00 1838.78,-548.42"/>
    </edge>
    <edge id="L1" from="1" to="911" priority="3">
        <lane id="L1_0" index="0" speed="13.89" length="44.68" shape="1675.61,-539.88 1631.00,-542.31"/>
        <lane id="L1_1" index="1" speed="13.89" length="44.68" shape="1675.79,-543.08 1631.17,-545.50"/>
        <lane id="L1_2" index="2" speed="13.89" length="44.68" shape="1675.96,-546.27 1631.34,-548.70"/>
    </edge>
    <edge id="L10" from="6" to="5" priority="3">
        <lane id="L10_0" index="0" speed="13.89" length="35.71" shape="1764.98,-556.58 1800.67,-555.51"/>
        <lane id="L10_1" index="1" speed="13.89" length="35.71" shape="1764.88,-553.38 1800.57,-552.31"/>
        <lane id="L10_2" index="2" speed="13.89" length="35.71" shape="1764.79,-550.19 1800.48,-549.11"/>
    </edge>
    <edge id="L11" from="6" to="1" priority="3">
        <lane id="L11_0" index="0" speed="13.89" length="54.49" shape="1738.34,-540.74 1683.87,-539.73"/>
        <lane id="L11_1" index="1" speed="13.89" length="54.49" shape="1738.28,-543.94 1683.81,-542.93"/>
        <lane id="L11_2" index="2" speed="13.89" length="54.49" shape="1738.22,-547.14 1683.75,-546.13"/>
    </edge>
    <edge id="L12" from="1" to="6" priority="3">
        <lane id="L12_0" index="0" speed="13.89" length="54.49" shape="1683.57,-555.73 1738.05,-556.74"/>
        <lane id="L12_1" index="1" speed="13.89" length="54.49" shape="1683.63,-552.53 1738.11,-553.54"/>
        <lane id="L12_2" index="2" speed="13.89" length="54.49" shape="1683.69,-549.33 1738.17,-550.34"/>
    </edge>
    <edge id="L13" from="3" to="2" priority="3">
        <lane id="L13_0" index="0" speed="13.89" length="58.36" shape="1738.14,-594.77 1679.79,-595.79"/>
        <lane id="L13_1" index="1" speed="13.89" length="58.36" shape="1738.20,-597.97 1679.85,-598.99"/>
        <lane id="L13_2" index="2" speed="13.89" length="58.36" shape="1738.26,-601.17 1679.91,-602.19"/>
    </edge>
    <edge id="L14" from="2" to="3" priority="3">
        <lane id="L14_0" index="0" speed="13.89" length="58.36" shape="1680.07,-611.78 1738.42,-610.76"/>
        <lane id="L14_1" index="1" speed="13.89" length="58.36" shape="1680.02,-608.58 1738.37,-607.56"/>
        <lane id="L14_2" index="2" speed="13.89" length="58.36" shape="1679.96,-605.38 1738.31,-604.36"/>
    </edge>
    <edge id="L15" from="6" to="3" priority="2">
        <lane id="L15_0" index="0" speed="13.89" length="26.73" shape="1743.54,-562.31 1743.68,-589.04"/>
        <lane id="L15_1" index="1" speed="13.89" length="26.73" shape="1746.74,-562.29 1746.88,-589.02"/>
        <lane id="L15_2" index="2" speed="13.89" length="26.73" shape="1749.94,-562.28 1750.08,-589.00"/>
    </edge>
    <edge id="L16" from="3" to="6" priority="2">
        <lane id="L16_0" index="0" speed="13.89" length="26.73" shape="1759.68,-588.96 1759.54,-562.23"/>
        <lane id="L16_1" index="1" speed="13.89" length="26.73" shape="1756.48,-588.97 1756.34,-562.25"/>
        <lane id="L16_2" index="2" speed="13.89" length="26.73" shape="1753.28,-588.99 1753.14,-562.26"/>
    </edge>
    <edge id="L17" from="4" to="3" priority="3">
        <lane id="L17_0" index="0" speed="13.89" length="35.75" shape="1801.03,-594.53 1765.27,-594.53"/>
        <lane id="L17_1" index="1" speed="13.89" length="35.75" shape="1801.03,-597.73 1765.27,-597.73"/>
        <lane id="L17_2" index="2" speed="13.89" length="35.75" shape="1801.03,-600.93 1765.27,-600.93"/>
    </edge>
    <edge id="L18" from="3" to="4" priority="3">
        <lane id="L18_0" index="0" speed="13.89" length="35.75" shape="1765.27,-610.53 1801.03,-610.53"/>
        <lane id="L18_1" index="1" speed="13.89" length="35.75" shape="1765.27,-607.33 1801.03,-607.33"/>
        <lane id="L18_2" index="2" speed="13.89" length="35.75" shape="1765.27,-604.13 1801.03,-604.13"/>
    </edge>
    <edge id="L2" from="911" to="1" priority="3">
        <lane id="L2_0" index="0" speed="13.89" length="44.68" shape="1631.69,-555.09 1676.31,-552.66"/>
        <lane id="L2_1" index="1" speed="13.89" length="44.68" shape="1631.52,-551.89 1676.13,-549.47"/>
    </edge>
    <edge id="L3" from="2" to="912" priority="3">
        <lane id="L3_0" index="0" speed="13.89" length="40.93" shape="1672.05,-595.81 1631.12,-595.33"/>
        <lane id="L3_1" index="1" speed="13.89" length="40.93" shape="1672.01,-599.01 1631.09,-598.53"/>
        <lane id="L3_2" index="2" speed="13.89" length="40.93" shape="1671.97,-602.21 1631.05,-601.73"/>
    </edge>
    <edge id="L4" from="912" to="2" priority="3">
        <lane id="L4_0" index="0" speed="13.89" length="40.93" shape="1630.97,-608.13 1671.90,-608.61"/>
        <lane id="L4_1" index="1" speed="13.89" length="40.93" shape="1631.01,-604.93 1671.94,-605.41"/>
    </edge>
    <edge id="L5" from="4" to="913" priority="3">
        <lane id="L5_0" index="0" speed="13.89" length="33.96" shape="1809.07,-610.50 1843.03,-610.27"/>
        <lane id="L5_1" index="1" speed="13.89" length="33.96" shape="1809.05,-607.30 1843.01,-607.07"/>
        <lane id="L5_2" index="2" speed="13.89" length="33.96" shape="1809.03,-604.10 1842.98,-603.87"/>
    </edge>
    <edge id="L6" from="913" to="4" priority="3">
        <lane id="L6_0" index="0" speed="13.89" length="33.96" shape="1842.94,-597.47 1808.99,-597.70"/>
        <lane id="L6_1" index="1" speed="13.89" length="33.96" shape="1842.96,-600.67 1809.01,-600.90"/>
    </edge>
    <edge id="L7" from="5" to="914" priority="3">
        <lane id="L7_0" index="0" speed="13.89" length="30.10" shape="1807.31,-555.66 1837.32,-557.99"/>
        <lane id="L7_1" index="1" speed="13.89" length="30.10" shape="1807.55,-552.47 1837.57,-554.79"/>
        <lane id="L7_2" index="2" speed="13.89" length="30.10" shape="1807.80,-549.28 1837.82,-551.60"/>
    </edge>
    <edge id="L8" from="914" to="5" priority="3">
        <lane id="L8_0" index="0" speed="13.89" length="30.10" shape="1838.31,-545.22 1808.30,-542.90"/>
        <lane id="L8_1" index="1" speed="13.89" length="30.10" shape="1838.06,-548.41 1808.05,-546.09"/>
    </edge>
    <edge id="L9" from="5" to="6" priority="3">
        <lane id="L9_0" index="0" speed="13.89" length="35.71" shape="1800.19,-539.51 1764.50,-540.59"/>
        <lane id="L9_1" index="1" speed="13.89" length="35.71" shape="1800.29,-542.71 1764.59,-543.79"/>
        <lane id="L9_2" index="2" speed="13.89" length="35.71" shape="1800.38,-545.91 1764.69,-546.99"/>
    </edge>

    <junction id="1" type="priority" x="1679.91" y="-547.66" incLanes="L11_0 L11_1 L11_2 L2_0 L2_1" intLanes=":1_0_0 :1_0_1 :1_0_2 :1_3_0 :1_3_1 :1_3_2" shape="1683.90,-538.13 1683.54,-557.33 1680.82,-556.46 1679.97,-555.69 1679.11,-554.95 1678.00,-554.41 1676.39,-554.26 1675.53,-538.28">
        <request index="0" response="000000" foes="000000" cont="0"/>
        <request index="1" response="000000" foes="000000" cont="0"/>
        <request index="2" response="000000" foes="000000" cont="0"/>
        <request index="3" response="000000" foes="000000" cont="0"/>
        <request index="4" response="000000" foes="000000" cont="0"/>
        <request index="5" response="000000" foes="000000" cont="0"/>
    </junction>
    <junction id="2" type="priority" x="1675.93" y="-603.85" incLanes="L13_0 L13_1 L13_2 L4_0 L4_1" intLanes=":2_0_0 :2_0_1 :2_0_2 :2_3_0 :2_3_1 :2_3_2" shape="1679.77,-594.19 1680.10,-613.38 1676.99,-612.61 1675.99,-611.84 1674.99,-611.07 1673.71,-610.47 1671.88,-610.21 1672.07,-594.21">
        <request index="0" response="000000" foes="000000" cont="0"/>
        <request index="1" response="000000" foes="000000" cont="0"/>
        <request index="2" response="000000" foes="000000" cont="0"/>
        <request index="3" response="000000" foes="000000" cont="0"/>
        <request index="4" response="000000" foes="000000" cont="0"/>
        <request index="5" response="000000" foes="000000" cont="0"/>
    </junction>
    <junction id="3" type="priority" x="1751.74" y="-602.53" incLanes="L17_0 L17_1 L17_2 L14_0 L14_1 L14_2 L15_0 L15_1 L15_2" intLanes=":3_0_0 :3_1_0 :3_1_1 :3_1_2 :3_4_0 :3_4_1 :3_4_2 :3_12_0 :3_13_0 :3_9_0 :3_10_0 :3_11_0" shape="1765.27,-592.93 1765.27,-612.13 1738.45,-612.36 1738.12,-593.17 1740.32,-592.68 1741.10,-592.10 1741.64,-591.30 1741.97,-590.28 1742.08,-589.04 1761.28,-588.95 1761.73,-591.16 1762.28,-591.93 1763.06,-592.49 1764.06,-592.82">
        <request index="0"  response="000000000000" foes="000000000000" cont="0"/>
        <request index="1"  response="000000000000" foes="111110000000" cont="0"/>
        <request index="2"  response="000000000000" foes="111110000000" cont="0"/>
        <request index="3"  response="000000000000" foes="111110000000" cont="0"/>
        <request index="4"  response="000000000000" foes="100000000000" cont="0"/>
        <request index="5"  response="000000000000" foes="100000000000" cont="0"/>
        <request index="6"  response="000000000000" foes="100000000000" cont="0"/>
        <request index="7"  response="000000001110" foes="100000001110" cont="1"/>
        <request index="8"  response="000000001110" foes="100000001110" cont="1"/>
        <request index="9"  response="000000001110" foes="000000001110" cont="0"/>
        <request index="10" response="000000001110" foes="000000001110" cont="0"/>
        <request index="11" response="000111111110" foes="000111111110" cont="0"/>
    </junction>
    <junction id="4" type="priority" x="1805.02" y="-602.53" incLanes="L6_0 L6_1 L18_0 L18_1 L18_2" intLanes=":4_0_0 :4_0_1 :4_0_2 :4_3_0 :4_3_1 :4_3_2" shape="1808.97,-596.10 1809.09,-612.10 1801.03,-612.13 1801.03,-592.93 1804.04,-593.76 1805.96,-595.29 1807.20,-595.88">
        <request index="0" response="000000" foes="000000" cont="0"/>
        <request index="1" response="000000" foes="000000" cont="0"/>
        <request index="2" response="000000" foes="000000" cont="0"/>
        <request index="3" response="000000" foes="000000" cont="0"/>
        <request index="4" response="000000" foes="000000" cont="0"/>
        <request index="5" response="000000" foes="000000" cont="0"/>
    </junction>
    <junction id="5" type="priority" x="1804.23" y="-547.40" incLanes="L8_0 L8_1 L10_0 L10_1 L10_2" intLanes=":5_0_0 :5_0_1 :5_0_2 :5_3_0 :5_3_1 :5_3_2" shape="1808.42,-541.30 1807.18,-557.25 1804.79,-557.08 1803.95,-557.05 1803.12,-557.05 1802.10,-557.07 1800.72,-557.11 1800.14,-537.91 1803.28,-538.66 1804.28,-539.43 1805.29,-540.24 1806.57,-540.92">
        <request index="0" response="000000" foes="000000" cont="0"/>
        <request index="1" response="000000" foes="000000" cont="0"/>
        <request index="2" response="000000" foes="000000" cont="0"/>
        <request index="3" response="000000" foes="000000" cont="0"/>
        <request index="4" response="000000" foes="000000" cont="0"/>
        <request index="5" response="000000" foes="000000" cont="0"/>
    </junction>
    <junction id="6" type="priority" x="1751.48" y="-548.99" incLanes="L9_0 L9_1 L9_2 L16_0 L16_1 L16_2 L12_0 L12_1 L12_2" intLanes=":6_0_0 :6_0_1 :6_0_2 :6_12_0 :6_13_0 :6_5_0 :6_6_0 :6_7_0 :6_8_0 :6_9_0 :6_9_1 :6_9_2" shape="1764.45,-538.99 1765.03,-558.18 1762.86,-558.68 1762.10,-559.25 1761.57,-560.03 1761.25,-561.02 1761.14,-562.22 1741.94,-562.32 1741.50,-560.14 1740.95,-559.37 1740.19,-558.81 1739.21,-558.47 1738.02,-558.34 1738.37,-539.14">
        <request index="0"  response="000000000000" foes="000010000000" cont="0"/>
        <request index="1"  response="000000000000" foes="000010000000" cont="0"/>
        <request index="2"  response="000000000000" foes="000010000000" cont="0"/>
        <request index="3"  response="111000000000" foes="111010000000" cont="1"/>
        <request index="4"  response="111000000000" foes="111010000000" cont="1"/>
        <request index="5"  response="111000000000" foes="111000000000" cont="0"/>
        <request index="6"  response="111000000000" foes="111000000000" cont="0"/>
        <request index="7"  response="111000011111" foes="111000011111" cont="0"/>
        <request index="8"  response="000000000000" foes="000000000000" cont="0"/>
        <request index="9"  response="000000000000" foes="000011111000" cont="0"/>
        <request index="10" response="000000000000" foes="000011111000" cont="0"/>
        <request index="11" response="000000000000" foes="000011111000" cont="0"/>
    </junction>
    <junction id="91" type="dead_end" x="1555.86" y="-549.78" incLanes="D1_0 D1_1 D1_2" intLanes="" shape="1555.86,-549.78 1555.92,-540.18 1555.86,-549.78"/>
    <junction id="911" type="priority" x="1631.14" y="-550.31" incLanes="L1_0 L1_1 L1_2 D2_0 D2_1" intLanes=":911_0_0 :911_0_1 :911_0_2 :911_3_0 :911_3_1" shape="1630.91,-540.71 1631.78,-556.69 1630.80,-556.71">
        <request index="0" response="00000" foes="00000" cont="0"/>
        <request index="1" response="00000" foes="00000" cont="0"/>
        <request index="2" response="00000" foes="00000" cont="0"/>
        <request index="3" response="00000" foes="00000" cont="0"/>
        <request index="4" response="00000" foes="00000" cont="0"/>
    </junction>
    <junction id="912" type="priority" x="1630.87" y="-603.32" incLanes="L3_0 L3_1 L3_2 D4_0 D4_1" intLanes=":912_0_0 :912_0_1 :912_0_2 :912_3_0 :912_3_1" shape="1631.14,-593.73 1630.95,-609.73 1630.54,-593.73">
        <request index="0" response="00000" foes="00000" cont="0"/>
        <request index="1" response="00000" foes="00000" cont="0"/>
        <request index="2" response="00000" foes="00000" cont="0"/>
        <request index="3" response="00000" foes="00000" cont="0"/>
        <request index="4" response="00000" foes="00000" cont="0"/>
    </junction>
    <junction id="913" type="priority" x="1843.19" y="-602.26" incLanes="D6_0 D6_1 L5_0 L5_1 L5_2" intLanes=":913_0_0 :913_0_1 :913_2_0 :913_2_1 :913_2_2" shape="1843.53,-595.87 1843.05,-611.86 1842.93,-595.87">
        <request index="0" response="00000" foes="00000" cont="0"/>
        <request index="1" response="00000" foes="00000" cont="0"/>
        <request index="2" response="00000" foes="00000" cont="0"/>
        <request index="3" response="00000" foes="00000" cont="0"/>
        <request index="4" response="00000" foes="00000" cont="0"/>
    </junction>
    <junction id="914" type="priority" x="1838.42" y="-550.05" incLanes="D8_0 D8_1 L7_0 L7_1 L7_2" intLanes=":914_0_0 :914_0_1 :914_2_0 :914_2_1 :914_2_2" shape="1838.43,-543.63 1839.59,-559.59 1838.71,-559.64 1838.40,-559.65 1838.08,-559.64 1837.71,-559.62 1837.20,-559.58">
        <request index="0" response="00000" foes="00000" cont="0"/>
        <request index="1" response="00000" foes="00000" cont="0"/>
        <request index="2" response="00000" foes="00000" cont="0"/>
        <request index="3" response="00000" foes="00000" cont="0"/>
        <request index="4" response="00000" foes="00000" cont="0"/>
    </junction>
    <junction id="92" type="dead_end" x="1556.92" y="-605.18" incLanes="D3_0 D3_1 D3_2" intLanes="" shape="1556.92,-605.18 1556.68,-595.58 1556.92,-605.18"/>
    <junction id="93" type="dead_end" x="1887.46" y="-603.59" incLanes="D5_0 D5_1 D5_2" intLanes="" shape="1887.46,-603.59 1887.17,-613.19 1887.46,-603.59"/>