<?xml version="1.0" encoding="UTF-8"?>

<!-- generated on 09/23/18 13:46:06 by Eclipse SUMO netconvert Version 1.0.0
<configuration xmlns:xsi="http://www.w3.org/2001/XMLSchema-instance" xsi:noNamespaceSchemaLocation="http://sumo.dlr.de/xsd/netconvertConfiguration.xsd">

    <input>
        <type-files value="C:\Program%20Files%20(x86)\Eclipse\Sumo\data\typemap\osmNetconvert.typ.xml,C:\Program%20Files%20(x86)\Eclipse\Sumo\data\typemap\osmNetconvertBicycle.typ.xml"/>
        <osm-files value="D:\Sumo\2018-09-23-13-46-05\osm_bbox.osm.xml"/>
    </input>

    <output>
        <output-file value="D:\Sumo\2018-09-23-13-46-05\osm.net.xml"/>
        <output.street-names value="true"/>
        <output.original-names value="true"/>
    </output>

    <projection>
        <proj.utm value="true"/>
    </projection>

    <processing>
        <geometry.remove value="true"/>
        <roundabouts.guess value="true"/>
        <lefthand value="true"/>
    </processing>

    <tls_building>
        <tls.discard-simple value="true"/>
        <tls.join value="true"/>
        <tls.guess-signals value="true"/>
        <tls.default-type value="actuated"/>
    </tls_building>

    <ramp_guessing>
        <ramps.guess value="true"/>
    </ramp_guessing>

    <junctions>
        <junctions.join value="true"/>
        <junctions.corner-detail value="5"/>
    </junctions>

    <report>
        <verbose value="true"/>
    </report>

</configuration>
-->

<net version="1.0" junctionCornerDetail="5" lefthand="true" limitTurnSpeed="5.50" xmlns:xsi="http://www.w3.org/2001/XMLSchema-instance" xsi:noNamespaceSchemaLocation="http://sumo.dlr.de/xsd/net_file.xsd">

    <location netOffset="-671365.75,-2285446.50" convBoundary="0.00,-0.00,8233.25,3691.09" origBoundary="-103.354822,20.659759,-103.275977,20.696819" projParameter="+proj=utm +zone=13 +ellps=WGS84 +datum=WGS84 +units=m +no_defs"/>

    <type id="cycleway.lane" allow="bicycle" bikeLaneWidth="1.00"/>
    <type id="cycleway.opposite_lane" allow="bicycle" bikeLaneWidth="1.00"/>
    <type id="cycleway.opposite_track" allow="bicycle" bikeLaneWidth="1.50"/>
    <type id="cycleway.track" allow="bicycle" bikeLaneWidth="1.50"/>
    <type id="highway.bridleway" priority="1" numLanes="1" speed="2.78" allow="pedestrian" oneway="1" width="2.00"/>
    <type id="highway.bus_guideway" priority="1" numLanes="1" speed="27.78" allow="bus" oneway="1"/>
    <type id="highway.cycleway" priority="1" numLanes="1" speed="8.33" allow="bicycle" oneway="0" width="1.00"/>
    <type id="highway.footway" priority="1" numLanes="1" speed="2.78" allow="pedestrian" oneway="1" width="2.00"/>
    <type id="highway.ford" priority="1" numLanes="1" speed="2.78" allow="army" oneway="0"/>
    <type id="highway.living_street" priority="3" numLanes="1" speed="2.78" disallow="tram rail_urban rail rail_electric ship" oneway="0"/>
    <type id="highway.motorway" priority="13" numLanes="2" speed="44.44" allow="private emergency authority army vip passenger hov taxi bus coach delivery truck trailer motorcycle evehicle custom1 custom2" oneway="1"/>
    <type id="highway.motorway_link" priority="12" numLanes="1" speed="22.22" allow="private emergency authority army vip passenger hov taxi bus coach delivery truck trailer motorcycle evehicle custom1 custom2" oneway="1"/>
    <type id="highway.path" priority="1" numLanes="1" speed="2.78" allow="bicycle pedestrian" oneway="1" width="2.00"/>
    <type id="highway.pedestrian" priority="1" numLanes="1" speed="2.78" allow="pedestrian" oneway="1" width="2.00"/>
    <type id="highway.primary" priority="9" numLanes="2" speed="27.78" disallow="tram rail_urban rail rail_electric ship" oneway="0"/>
    <type id="highway.primary_link" priority="8" numLanes="1" speed="22.22" disallow="tram rail_urban rail rail_electric ship" oneway="0"/>
    <type id="highway.raceway" priority="14" numLanes="2" speed="83.33" allow="vip" oneway="0"/>
    <type id="highway.residential" priority="4" numLanes="1" speed="13.89" disallow="tram rail_urban rail rail_electric ship" oneway="0"/>
    <type id="highway.secondary" priority="7" numLanes="2" speed="27.78" disallow="tram rail_urban rail rail_electric ship" oneway="0"/>
    <type id="highway.secondary_link" priority="6" numLanes="1" speed="22.22" disallow="tram rail_urban rail rail_electric ship" oneway="0"/>
    <type id="highway.service" priority="2" numLanes="1" speed="5.56" allow="delivery bicycle pedestrian" oneway="0"/>
    <type id="highway.stairs" priority="1" numLanes="1" speed="1.39" allow="pedestrian" oneway="1" width="2.00"/>
    <type id="highway.step" priority="1" numLanes="1" speed="1.39" allow="pedestrian" oneway="1" width="2.00"/>
    <type id="highway.steps" priority="1" numLanes="1" speed="1.39" allow="pedestrian" oneway="1" width="2.00"/>
    <type id="highway.tertiary" priority="6" numLanes="1" speed="22.22" disallow="tram rail_urban rail rail_electric ship" oneway="0"/>
    <type id="highway.tertiary_link" priority="5" numLanes="1" speed="22.22" disallow="tram rail_urban rail rail_electric ship" oneway="0"/>
    <type id="highway.track" priority="1" numLanes="1" speed="5.56" disallow="tram rail_urban rail rail_electric ship" oneway="0"/>
    <type id="highway.trunk" priority="11" numLanes="2" speed="27.78" disallow="tram rail_urban rail rail_electric bicycle pedestrian ship" oneway="0"/>
    <type id="highway.trunk_link" priority="10" numLanes="1" speed="22.22" disallow="tram rail_urban rail rail_electric bicycle pedestrian ship" oneway="0"/>
    <type id="highway.unclassified" priority="5" numLanes="1" speed="13.89" disallow="tram rail_urban rail rail_electric ship" oneway="0"/>
    <type id="highway.unsurfaced" priority="1" numLanes="1" speed="8.33" disallow="tram rail_urban rail rail_electric ship" oneway="0"/>
    <type id="railway.light_rail" priority="15" numLanes="1" speed="27.78" allow="rail_urban" oneway="1"/>
    <type id="railway.preserved" priority="15" numLanes="1" speed="27.78" allow="rail" oneway="1"/>
    <type id="railway.rail" priority="15" numLanes="1" speed="83.33" allow="rail rail_electric" oneway="1"/>
    <type id="railway.subway" priority="15" numLanes="1" speed="27.78" allow="rail_urban" oneway="1"/>
    <type id="railway.tram" priority="15" numLanes="1" speed="13.89" allow="tram" oneway="1"/>

    <edge id=":1041147116_0" function="internal">
        <lane id=":1041147116_0_0" index="0" disallow="tram rail_urban rail rail_electric ship" speed="25.00" length="10.51" shape="1332.97,1897.22 1343.46,1897.76"/>
    </edge>
    <edge id=":1041147116_1" function="internal">
        <lane id=":1041147116_1_0" index="0" disallow="tram rail_urban rail rail_electric ship" speed="27.78" length="7.98" shape="1333.13,1894.02 1341.14,1894.35"/>
        <lane id=":1041147116_1_1" index="1" disallow="tram rail_urban rail rail_electric ship" speed="27.78" length="7.98" shape="1333.29,1890.82 1341.24,1891.15"/>
    </edge>
    <edge id=":1215403137_0" function="internal">
        <lane id=":1215403137_0_0" index="0" disallow="tram rail_urban rail rail_electric ship" speed="13.89" length="5.12" shape="689.71,1871.74 689.36,1876.85"/>
    </edge>
    <edge id=":1215403137_1" function="internal">
        <lane id=":1215403137_1_0" index="0" disallow="tram rail_urban rail rail_electric ship" speed="3.65" length="2.34" shape="689.71,1871.74 690.41,1873.00 691.18,1873.46"/>
    </edge>
    <edge id=":1215403137_4" function="internal">
        <lane id=":1215403137_4_0" index="0" speed="3.65" length="2.34" shape="691.18,1873.46 692.01,1873.13 692.90,1871.99"/>
    </edge>
    <edge id=":1215403137_2" function="internal">
        <lane id=":1215403137_2_0" index="0" disallow="tram rail_urban rail rail_electric ship" speed="13.89" length="5.06" shape="692.56,1877.03 692.90,1871.99"/>
    </edge>
    <edge id=":1215403137_3" function="internal">
        <lane id=":1215403137_3_0" index="0" disallow="tram rail_urban rail rail_electric ship" speed="3.65" length="2.34" shape="692.56,1877.03 691.83,1875.79 691.05,1875.35"/>
    </edge>
    <edge id=":1215403137_5" function="internal">
        <lane id=":1215403137_5_0" index="0" speed="3.65" length="2.34" shape="691.05,1875.35 690.23,1875.70 689.36,1876.85"/>
    </edge>
    <edge id=":1215403146_0" function="internal">
        <lane id=":1215403146_0_0" index="0" disallow="tram rail_urban rail rail_electric ship" speed="3.65" length="4.67" shape="699.58,1785.65 698.88,1784.39 698.11,1783.93 697.28,1784.27 696.39,1785.40"/>
    </edge>
    <edge id=":1215403156_0" function="internal">
        <lane id=":1215403156_0_0" index="0" disallow="tram rail_urban rail rail_electric ship" speed="13.89" length="11.31" shape="857.03,1784.15 856.69,1795.45"/>
    </edge>
    <edge id=":1215403156_1" function="internal">
        <lane id=":1215403156_1_0" index="0" disallow="tram rail_urban rail rail_electric ship" speed="6.41" length="4.13" shape="862.33,1790.01 859.85,1790.26 858.42,1791.07"/>
    </edge>
    <edge id=":1215403156_2" function="internal">
        <lane id=":1215403156_2_0" index="0" speed="6.41" length="4.90" shape="858.42,1791.07 858.09,1791.25 857.03,1792.98 856.69,1795.45"/>
    </edge>
    <edge id=":1223706785_0" function="internal">
        <lane id=":1223706785_0_0" index="0" allow="delivery bicycle pedestrian" speed="3.65" length="4.67" shape="1114.84,1807.51 1116.08,1806.79 1116.53,1806.01 1116.18,1805.19 1115.02,1804.32"/>
    </edge>
    <edge id=":1223706825_0" function="internal">
        <lane id=":1223706825_0_0" index="0" disallow="tram rail_urban rail rail_electric ship" speed="6.43" length="9.03" shape="948.48,1793.57 946.03,1793.14 944.33,1792.03 943.39,1790.23 943.20,1787.75"/>
    </edge>
    <edge id=":1223706825_1" function="internal">
        <lane id=":1223706825_1_0" index="0" disallow="tram rail_urban rail rail_electric ship" speed="13.89" length="11.22" shape="948.48,1793.57 937.27,1793.17"/>
    </edge>
    <edge id=":130153753_0" function="internal">
        <lane id=":130153753_0_0" index="0" disallow="tram rail_urban rail rail_electric ship" speed="6.55" length="8.83" shape="867.56,1617.05 867.07,1619.43 865.97,1621.13 864.23,1622.13 861.88,1622.43"/>
    </edge>
    <edge id=":130153753_1" function="internal">
        <lane id=":130153753_1_0" index="0" disallow="tram rail_urban rail rail_electric ship" speed="8.04" length="13.81" shape="870.75,1617.25 869.99,1620.97 868.25,1623.60 865.53,1625.16 861.83,1625.63"/>
    </edge>
    <edge id=":130153753_2" function="internal">
        <lane id=":130153753_2_0" index="0" disallow="tram rail_urban rail rail_electric ship" speed="8.72" length="16.40" shape="870.75,1617.25 869.91,1622.37 868.14,1626.00 865.43,1628.16 861.78,1628.83"/>
    </edge>
    <edge id=":130153753_3" function="internal">
        <lane id=":130153753_3_0" index="0" disallow="tram rail_urban rail rail_electric ship" speed="20.84" length="20.56" shape="870.75,1617.25 868.55,1637.70"/>
    </edge>
    <edge id=":130153753_4" function="internal">
        <lane id=":130153753_4_0" index="0" disallow="tram rail_urban rail rail_electric ship" speed="27.78" length="13.70" shape="875.81,1623.00 861.88,1622.43"/>
        <lane id=":130153753_4_1" index="1" disallow="tram rail_urban rail rail_electric ship" speed="27.78" length="13.70" shape="875.60,1626.20 861.83,1625.63"/>
        <lane id=":130153753_4_2" index="2" disallow="tram rail_urban rail rail_electric ship" speed="27.78" length="13.70" shape="875.39,1629.39 861.78,1628.83"/>
        <lane id=":130153753_4_3" index="3" disallow="tram rail_urban rail rail_electric ship" speed="27.78" length="13.70" shape="875.18,1632.58 861.73,1632.03"/>
    </edge>
    <edge id=":130153753_8" function="internal">
        <lane id=":130153753_8_0" index="0" disallow="tram rail_urban rail rail_electric ship" speed="6.72" length="9.49" shape="875.18,1632.58 872.47,1632.75 870.46,1633.66 869.15,1635.31 868.55,1637.70"/>
    </edge>
    <edge id=":1341839824_0" function="internal">
        <lane id=":1341839824_0_0" index="0" disallow="tram rail_urban rail rail_electric ship" speed="6.51" length="8.96" shape="528.91,1771.21 528.45,1773.62 527.32,1775.31 525.54,1776.28 523.10,1776.53"/>
    </edge>
    <edge id=":1341846736_0" function="internal">
        <lane id=":1341846736_0_0" index="0" disallow="tram rail_urban rail rail_electric ship" speed="6.54" length="9.16" shape="538.77,1602.41 538.29,1604.85 537.13,1606.54 535.28,1607.50 532.74,1607.72"/>
    </edge>
    <edge id=":1341846736_1" function="internal">
        <lane id=":1341846736_1_0" index="0" disallow="tram rail_urban rail rail_electric ship" speed="7.35" length="11.85" shape="538.77,1602.41 538.23,1606.25 537.01,1608.94 535.13,1610.49 532.58,1610.91"/>
    </edge>
    <edge id=":1341846736_2" function="internal">
        <lane id=":1341846736_2_0" index="0" disallow="tram rail_urban rail rail_electric ship" speed="13.89" length="20.86" shape="538.77,1602.41 537.44,1623.23"/>
    </edge>
    <edge id=":1341846736_3" function="internal">
        <lane id=":1341846736_3_0" index="0" disallow="tram rail_urban rail rail_electric ship" speed="27.78" length="11.33" shape="544.08,1608.33 532.74,1607.72"/>
        <lane id=":1341846736_3_1" index="1" disallow="tram rail_urban rail rail_electric ship" speed="27.78" length="11.33" shape="543.90,1611.53 532.58,1610.91"/>
        <lane id=":1341846736_3_2" index="2" disallow="tram rail_urban rail rail_electric ship" speed="27.78" length="11.33" shape="543.72,1614.72 532.41,1614.11"/>
        <lane id=":1341846736_3_3" index="3" disallow="tram rail_urban rail rail_electric ship" speed="27.78" length="11.33" shape="543.54,1617.92 532.24,1617.30"/>
    </edge>
    <edge id=":1341846736_7" function="internal">
        <lane id=":1341846736_7_0" index="0" disallow="tram rail_urban rail rail_electric ship" speed="6.58" length="9.20" shape="543.54,1617.92 541.01,1618.13 539.15,1619.08 537.96,1620.78 537.44,1623.23"/>
    </edge>
    <edge id=":1369105715_0" function="internal">
        <lane id=":1369105715_0_0" index="0" disallow="tram rail_urban rail rail_electric ship" speed="13.89" length="11.18" shape="533.19,1688.74 532.54,1699.90"/>
    </edge>
    <edge id=":1369105715_1" function="internal">
        <lane id=":1369105715_1_0" index="0" disallow="tram rail_urban rail rail_electric ship" speed="6.45" length="9.03" shape="527.19,1694.12 529.64,1694.54 531.35,1695.64 532.31,1697.42 532.54,1699.90"/>
    </edge>
    <edge id=":1369105738_0" function="internal">
        <lane id=":1369105738_0_0" index="0" disallow="tram rail_urban rail rail_electric ship" speed="3.65" length="4.67" shape="1135.03,1426.10 1134.23,1424.89 1133.44,1424.49 1132.63,1424.88 1131.83,1426.08"/>
    </edge>
    <edge id=":1369105771_0" function="internal">
        <lane id=":1369105771_0_0" index="0" disallow="tram rail_urban rail rail_electric ship" speed="3.65" length="4.67" shape="1207.51,1403.33 1206.52,1402.28 1205.67,1402.02 1204.95,1402.55 1204.36,1403.87"/>
    </edge>
    <edge id=":1369529327_0" function="internal">
        <lane id=":1369529327_0_0" index="0" disallow="tram rail_urban rail rail_electric ship" speed="6.74" length="8.89" shape="455.04,1773.79 452.71,1773.36 450.99,1772.28 449.87,1770.55 449.36,1768.18"/>
    </edge>
    <edge id=":1369529327_1" function="internal">
        <lane id=":1369529327_1_0" index="0" disallow="tram rail_urban rail rail_electric ship" speed="13.89" length="10.68" shape="455.04,1773.79 444.38,1773.18"/>
    </edge>
    <edge id=":1369529327_2" function="internal">
        <lane id=":1369529327_2_0" index="0" disallow="tram rail_urban rail rail_electric ship" speed="13.89" length="10.67" shape="449.91,1778.84 449.36,1768.18"/>
    </edge>
    <edge id=":1369529327_3" function="internal">
        <lane id=":1369529327_3_0" index="0" disallow="tram rail_urban rail rail_electric ship" speed="6.68" length="4.10" shape="449.91,1778.84 449.52,1776.51 448.60,1775.02"/>
    </edge>
    <edge id=":1369529327_4" function="internal">
        <lane id=":1369529327_4_0" index="0" speed="6.68" length="4.74" shape="448.60,1775.02 448.46,1774.79 446.75,1773.68 444.38,1773.18"/>
    </edge>
    <edge id=":1369529335_0" function="internal">
        <lane id=":1369529335_0_0" index="0" disallow="tram rail_urban rail rail_electric ship" speed="6.50" length="9.04" shape="631.84,1613.30 629.41,1612.82 627.72,1611.69 626.76,1609.88 626.53,1607.42"/>
    </edge>
    <edge id=":1369529335_1" function="internal">
        <lane id=":1369529335_1_0" index="0" disallow="tram rail_urban rail rail_electric ship" speed="27.78" length="11.33" shape="631.84,1613.30 620.56,1612.69"/>
        <lane id=":1369529335_1_1" index="1" disallow="tram rail_urban rail rail_electric ship" speed="27.78" length="11.33" shape="631.68,1616.49 620.38,1615.89"/>
        <lane id=":1369529335_1_2" index="2" disallow="tram rail_urban rail rail_electric ship" speed="27.78" length="11.33" shape="631.52,1619.69 620.20,1619.08"/>
        <lane id=":1369529335_1_3" index="3" disallow="tram rail_urban rail rail_electric ship" speed="27.78" length="11.33" shape="631.36,1622.88 620.01,1622.28"/>
    </edge>
    <edge id=":1369529335_5" function="internal">
        <lane id=":1369529335_5_0" index="0" disallow="tram rail_urban rail rail_electric ship" speed="13.89" length="20.84" shape="625.17,1628.21 626.53,1607.42"/>
    </edge>
    <edge id=":1369529335_6" function="internal">
        <lane id=":1369529335_6_0" index="0" disallow="tram rail_urban rail rail_electric ship" speed="7.23" length="11.83" shape="625.17,1628.21 625.21,1624.34 624.39,1621.53 622.72,1619.78 620.20,1619.08"/>
    </edge>
    <edge id=":1369529335_7" function="internal">
        <lane id=":1369529335_7_0" index="0" disallow="tram rail_urban rail rail_electric ship" speed="6.41" length="9.06" shape="625.17,1628.21 625.07,1625.74 624.18,1623.92 622.49,1622.77 620.01,1622.28"/>
    </edge>
    <edge id=":1394317038_0" function="internal">
        <lane id=":1394317038_0_0" index="0" disallow="tram rail_urban rail rail_electric ship" speed="13.89" length="11.06" shape="525.31,1941.22 514.25,1940.91"/>
    </edge>
    <edge id=":1394317038_1" function="internal">
        <lane id=":1394317038_1_0" index="0" disallow="tram rail_urban rail rail_electric ship" speed="6.53" length="8.97" shape="525.31,1941.22 522.89,1941.48 521.12,1942.47 519.99,1944.17 519.51,1946.59"/>
    </edge>
    <edge id=":1394317042_0" function="internal">
        <lane id=":1394317042_0_0" index="0" disallow="tram rail_urban rail rail_electric ship" speed="13.89" length="11.23" shape="515.54,2017.49 514.87,2028.70"/>
    </edge>
    <edge id=":1394317042_1" function="internal">
        <lane id=":1394317042_1_0" index="0" disallow="tram rail_urban rail rail_electric ship" speed="6.50" length="4.29" shape="515.54,2017.49 515.76,2019.95 516.60,2021.56"/>
    </edge>
    <edge id=":1394317042_4" function="internal">
        <lane id=":1394317042_4_0" index="0" speed="6.50" length="4.74" shape="516.60,2021.56 516.71,2021.76 518.40,2022.90 520.83,2023.37"/>
    </edge>
    <edge id=":1394317042_2" function="internal">
        <lane id=":1394317042_2_0" index="0" disallow="tram rail_urban rail rail_electric ship" speed="6.47" length="9.03" shape="509.61,2022.81 512.05,2023.28 513.74,2024.42 514.68,2026.23 514.87,2028.70"/>
    </edge>
    <edge id=":1394317042_3" function="internal">
        <lane id=":1394317042_3_0" index="0" disallow="tram rail_urban rail rail_electric ship" speed="13.89" length="11.23" shape="509.61,2022.81 520.83,2023.37"/>
    </edge>
    <edge id=":1407981427_0" function="internal">
        <lane id=":1407981427_0_0" index="0" disallow="tram rail_urban rail rail_electric ship" speed="13.89" length="11.09" shape="1083.75,2040.28 1083.72,2051.37"/>
    </edge>
    <edge id=":1407981427_1" function="internal">
        <lane id=":1407981427_1_0" index="0" disallow="tram rail_urban rail rail_electric ship" speed="6.74" length="4.41" shape="1083.75,2040.28 1084.07,2042.71 1085.03,2044.42"/>
    </edge>
    <edge id=":1407981427_4" function="internal">
        <lane id=":1407981427_4_0" index="0" speed="6.74" length="4.73" shape="1085.03,2044.42 1085.09,2044.52 1086.82,2045.71 1089.27,2046.29"/>
    </edge>
    <edge id=":1407981427_2" function="internal">
        <lane id=":1407981427_2_0" index="0" disallow="tram rail_urban rail rail_electric ship" speed="6.60" length="9.04" shape="1078.21,2045.57 1080.60,2046.00 1082.32,2047.11 1083.36,2048.90 1083.72,2051.37"/>
    </edge>
    <edge id=":1407981427_3" function="internal">
        <lane id=":1407981427_3_0" index="0" disallow="tram rail_urban rail rail_electric ship" speed="13.89" length="11.08" shape="1078.21,2045.57 1089.27,2046.29"/>
    </edge>
    <edge id=":1441466477_0" function="internal">
        <lane id=":1441466477_0_0" index="0" disallow="tram rail_urban rail rail_electric ship" speed="6.52" length="8.97" shape="1085.12,1958.22 1084.64,1960.63 1083.51,1962.32 1081.72,1963.29 1079.29,1963.54"/>
    </edge>
    <edge id=":1441466477_1" function="internal">
        <lane id=":1441466477_1_0" index="0" disallow="tram rail_urban rail rail_electric ship" speed="13.89" length="11.16" shape="1085.12,1958.22 1084.73,1969.37"/>
    </edge>
    <edge id=":1441466477_2" function="internal">
        <lane id=":1441466477_2_0" index="0" disallow="tram rail_urban rail rail_electric ship" speed="13.89" length="11.13" shape="1090.41,1964.04 1079.29,1963.54"/>
    </edge>
    <edge id=":1441466477_3" function="internal">
        <lane id=":1441466477_3_0" index="0" disallow="tram rail_urban rail rail_electric ship" speed="6.40" length="4.15" shape="1090.41,1964.04 1087.96,1964.27 1086.48,1965.08"/>
    </edge>
    <edge id=":1441466477_4" function="internal">
        <lane id=":1441466477_4_0" index="0" speed="6.40" length="4.81" shape="1086.48,1965.08 1086.19,1965.24 1085.12,1966.94 1084.73,1969.37"/>
    </edge>
    <edge id=":1459071544_0" function="internal">
        <lane id=":1459071544_0_0" index="0" disallow="tram rail_urban rail rail_electric ship" speed="13.89" length="10.20" shape="855.09,1879.20 854.56,1882.15 854.26,1884.23 854.08,1886.32 853.88,1889.31"/>
    </edge>
    <edge id=":1459071544_1" function="internal">
        <lane id=":1459071544_1_0" index="0" disallow="tram rail_urban rail rail_electric ship" speed="6.51" length="8.81" shape="848.84,1883.39 851.17,1883.96 852.79,1885.13 853.70,1886.92 853.88,1889.31"/>
    </edge>
    <edge id=":1459071547_0" function="internal">
        <lane id=":1459071547_0_0" index="0" disallow="tram rail_urban rail rail_electric ship" speed="13.89" length="11.32" shape="1009.62,2037.71 1008.85,2049.00"/>
    </edge>
    <edge id=":1459071547_1" function="internal">
        <lane id=":1459071547_1_0" index="0" disallow="tram rail_urban rail rail_electric ship" speed="6.43" length="4.30" shape="1009.62,2037.71 1009.80,2040.19 1010.64,2041.80"/>
    </edge>
    <edge id=":1459071547_4" function="internal">
        <lane id=":1459071547_4_0" index="0" speed="6.43" length="4.73" shape="1010.64,2041.80 1010.74,2041.99 1012.44,2043.10 1014.89,2043.53"/>
    </edge>
    <edge id=":1459071547_2" function="internal">
        <lane id=":1459071547_2_0" index="0" disallow="tram rail_urban rail rail_electric ship" speed="6.43" length="9.03" shape="1003.58,2043.17 1006.03,2043.60 1007.72,2044.72 1008.66,2046.52 1008.85,2049.00"/>
    </edge>
    <edge id=":1459071547_3" function="internal">
        <lane id=":1459071547_3_0" index="0" disallow="tram rail_urban rail rail_electric ship" speed="13.89" length="11.32" shape="1003.58,2043.17 1014.89,2043.53"/>
    </edge>
    <edge id=":1459071557_0" function="internal">
        <lane id=":1459071557_0_0" index="0" disallow="tram rail_urban rail rail_electric ship" speed="6.54" length="8.90" shape="937.34,1880.25 937.84,1877.85 938.96,1876.16 940.72,1875.18 943.11,1874.91"/>
    </edge>
    <edge id=":1459071557_1" function="internal">
        <lane id=":1459071557_1_0" index="0" disallow="tram rail_urban rail rail_electric ship" speed="27.78" length="10.93" shape="932.19,1874.57 943.11,1874.91"/>
    </edge>
    <edge id=":1459071594_0" function="internal">
        <lane id=":1459071594_0_0" index="0" disallow="tram rail_urban rail rail_electric ship" speed="6.29" length="9.04" shape="443.88,1697.76 444.04,1695.25 444.99,1693.48 446.71,1692.45 449.20,1692.15"/>
    </edge>
    <edge id=":1459071594_1" function="internal">
        <lane id=":1459071594_1_0" index="0" disallow="tram rail_urban rail rail_electric ship" speed="13.89" length="11.52" shape="443.88,1697.76 443.25,1686.26"/>
    </edge>
    <edge id=":1459071594_2" function="internal">
        <lane id=":1459071594_2_0" index="0" disallow="tram rail_urban rail rail_electric ship" speed="13.89" length="11.52" shape="437.69,1691.67 449.20,1692.15"/>
    </edge>
    <edge id=":1459071594_3" function="internal">
        <lane id=":1459071594_3_0" index="0" disallow="tram rail_urban rail rail_electric ship" speed="6.32" length="4.52" shape="437.69,1691.67 440.19,1691.46 441.95,1690.48"/>
    </edge>
    <edge id=":1459071594_4" function="internal">
        <lane id=":1459071594_4_0" index="0" speed="6.32" length="4.52" shape="441.95,1690.48 442.97,1688.75 443.25,1686.26"/>
    </edge>
    <edge id=":1459071621_0" function="internal">
        <lane id=":1459071621_0_0" index="0" disallow="tram rail_urban rail rail_electric ship" speed="20.84" length="7.69" shape="789.85,1881.13 792.13,1881.18 793.69,1881.18 795.26,1881.10 797.53,1880.94"/>
    </edge>
    <edge id=":1459071621_1" function="internal">
        <lane id=":1459071621_1_0" index="0" disallow="tram rail_urban rail rail_electric ship" speed="27.78" length="7.37" shape="789.93,1877.93 792.12,1877.98 793.62,1877.99 795.11,1877.92 797.30,1877.78"/>
    </edge>
    <edge id=":1459071752_0" function="internal">
        <lane id=":1459071752_0_0" index="0" disallow="tram rail_urban rail rail_electric ship" speed="6.45" length="9.03" shape="937.88,1957.72 935.44,1957.27 933.75,1956.14 932.80,1954.34 932.61,1951.86"/>
    </edge>
    <edge id=":1459071752_1" function="internal">
        <lane id=":1459071752_1_0" index="0" disallow="tram rail_urban rail rail_electric ship" speed="13.89" length="11.31" shape="937.88,1957.72 926.58,1957.35"/>
    </edge>
    <edge id=":1459071752_2" function="internal">
        <lane id=":1459071752_2_0" index="0" disallow="tram rail_urban rail rail_electric ship" speed="13.89" length="11.31" shape="931.86,1963.15 932.61,1951.86"/>
    </edge>
    <edge id=":1459071752_3" function="internal">
        <lane id=":1459071752_3_0" index="0" disallow="tram rail_urban rail rail_electric ship" speed="6.42" length="4.27" shape="931.86,1963.15 931.68,1960.67 930.85,1959.09"/>
    </edge>
    <edge id=":1459071752_4" function="internal">
        <lane id=":1459071752_4_0" index="0" speed="6.42" length="4.77" shape="930.85,1959.09 930.73,1958.87 929.03,1957.77 926.58,1957.35"/>
    </edge>
    <edge id=":1459071759_0" function="internal">
        <lane id=":1459071759_0_0" index="0" disallow="tram rail_urban rail rail_electric ship" speed="2.78" length="14.45" shape="771.56,1871.77 770.47,1886.17"/>
    </edge>
    <edge id=":1459071759_1" function="internal">
        <lane id=":1459071759_1_0" index="0" disallow="tram rail_urban rail rail_electric ship" speed="7.20" length="11.85" shape="771.56,1871.77 771.58,1875.66 772.44,1878.46 774.14,1880.18 776.67,1880.80"/>
    </edge>
    <edge id=":1459071759_2" function="internal">
        <lane id=":1459071759_2_0" index="0" disallow="tram rail_urban rail rail_electric ship" speed="6.37" length="9.04" shape="771.56,1871.77 771.69,1874.26 772.60,1876.07 774.29,1877.18 776.75,1877.60"/>
    </edge>
    <edge id=":1460325530_0" function="internal">
        <lane id=":1460325530_0_0" index="0" disallow="tram rail_urban rail rail_electric ship" speed="6.47" length="9.03" shape="1209.60,1634.03 1209.19,1636.48 1208.09,1638.20 1206.31,1639.18 1203.84,1639.43"/>
    </edge>
    <edge id=":1460325530_1" function="internal">
        <lane id=":1460325530_1_0" index="0" disallow="tram rail_urban rail rail_electric ship" speed="3.65" length="4.67" shape="1209.60,1634.03 1210.37,1635.25 1211.16,1635.67 1211.97,1635.29 1212.80,1634.11"/>
    </edge>
    <edge id=":1460325530_2" function="internal">
        <lane id=":1460325530_2_0" index="0" disallow="tram rail_urban rail rail_electric ship" speed="6.56" length="9.11" shape="1218.23,1639.99 1215.80,1639.55 1214.09,1638.42 1213.09,1636.61 1212.80,1634.11"/>
    </edge>
    <edge id=":1460325530_3" function="internal">
        <lane id=":1460325530_3_0" index="0" disallow="tram rail_urban rail rail_electric ship" speed="27.78" length="14.41" shape="1218.23,1639.99 1203.84,1639.43"/>
        <lane id=":1460325530_3_1" index="1" disallow="tram rail_urban rail rail_electric ship" speed="27.78" length="14.41" shape="1218.11,1643.19 1203.71,1642.63"/>
    </edge>
    <edge id=":1460325835_0" function="internal">
        <lane id=":1460325835_0_0" index="0" disallow="tram rail_urban rail rail_electric ship" speed="6.57" length="9.03" shape="1123.10,1628.82 1122.60,1631.24 1121.45,1632.93 1119.65,1633.91 1117.20,1634.17"/>
    </edge>
    <edge id=":1460325835_1" function="internal">
        <lane id=":1460325835_1_0" index="0" disallow="tram rail_urban rail rail_electric ship" speed="3.65" length="4.67" shape="1123.10,1628.82 1123.83,1630.07 1124.60,1630.52 1125.42,1630.17 1126.30,1629.02"/>
    </edge>