<?xml version="1.0" encoding="UTF-8"?>
<!-- generated on 2018-09-23 13:46:07.240000 by $Id$ via randomTrips.py
  options: 
-->
<routes xmlns:xsi="http://www.w3.org/2001/XMLSchema-instance" xsi:noNamespaceSchemaLocation="http://sumo.dlr.de/xsd/routes_file.xsd">
    <vType id="bike_bicycle" vClass="bicycle">
    </vType>
    <trip id="bike0" depart="0.00" departLane="best" from="312688112#0" to="-132740650" type="bike_bicycle"/>
    <trip id="bike1" depart="17.85" departLane="best" from="130927682#4" to="130927682#11" type="bike_bicycle"/>
    <trip id="bike2" depart="35.69" departLane="best" from="406471826#2" to="312688112#9" type="bike_bicycle"/>
    <trip id="bike5" depart="89.23" departLane="best" from="127135482#1" to="217202641#0" type="bike_bicycle"/>
    <trip id="bike6" depart="107.08" departLane="best" from="-132740650" to="127135482#0" type="bike_bicycle"/>
    <trip id="bike7" depart="124.92" departLane="best" from="312688112#0" to="220080268#1" type="bike_bicycle"/>
    <trip id="bike8" depart="142.77" departLane="best" from="127135482#1" to="298742255#1" type="bike_bicycle"/>
    <trip id="bike9" depart="160.62" departLane="best" from="431593419#8" to="-105857084#0" type="bike_bicycle"/>
    <trip id="bike10" depart="178.46" departLane="best" from="431593419#8" to="431593419#10" type="bike_bicycle"/>
    <trip id="bike11" depart="196.31" departLane="best" from="132973775" to="122601938#2" type="bike_bicycle"/>
    <trip id="bike12" depart="214.15" departLane="best" from="596202473#1" to="172365948#2" type="bike_bicycle"/>
    <trip id="bike15" depart="267.69" departLane="best" from="431593419#8" to="431593419#3" type="bike_bicycle"/>
    <trip id="bike16" depart="285.54" departLane="best" from="217202628#0" to="596202474#1" type="bike_bicycle"/>
    <trip id="bike17" depart="303.39" departLane="best" from="172365948#0" to="283453679" type="bike_bicycle"/>
    <trip id="bike18" depart="321.23" departLane="best" from="431593425#0" to="312688112#11" type="bike_bicycle"/>
    <trip id="bike21" depart="374.77" departLane="best" from="127135482#2" to="132647366#1" type="bike_bicycle"/>
    <trip id="bike25" depart="446.16" departLane="best" from="158309219" to="127135482#1" type="bike_bicycle"/>
    <trip id="bike26" depart="464.00" departLane="best" from="130927682#3" to="596202473#0" type="bike_bicycle"/>
    <trip id="bike27" depart="481.85" departLane="best" from="312688112#0" to="312688112#1" type="bike_bicycle"/>
    <trip id="bike30" depart="535.39" departLane="best" from="596202474#1" to="312688112#3" type="bike_bicycle"/>
    <trip id="bike32" depart="571.08" departLane="best" from="431597571" to="431593425#2" type="bike_bicycle"/>
    <trip id="bike34" depart="606.77" departLane="best" from="132647366#1" to="130927682#7" type="bike_bicycle"/>
    <trip id="bike35" depart="624.62" departLane="best" from="127135482#0" to="596202473#1" type="bike_bicycle"/>
    <trip id="bike36" depart="642.46" departLane="best" from="547727187" to="132973777" type="bike_bicycle"/>
    <trip id="bike37" depart="660.31" departLane="best" from="312688112#1" to="217101880#2" type="bike_bicycle"/>
    <trip id="bike38" depart="678.16" departLane="best" from="547727190" to="217101891#1" type="bike_bicycle"/>
    <trip id="bike39" depart="696.00" departLane="best" from="130927682#3" to="130927682#4" type="bike_bicycle"/>
    <trip id="bike40" depart="713.85" departLane="best" from="217202636#3" to="130927682#6" type="bike_bicycle"/>
    <trip id="bike41" depart="731.70" departLane="best" from="220080268#0" to="547727190" type="bike_bicycle"/>
    <trip id="bike42" depart="749.54" departLane="best" from="172365954#0" to="127135482#2" type="bike_bicycle"/>
    <trip id="bike43" depart="767.39" departLane="best" from="596202474#2" to="217202641#1" type="bike_bicycle"/>
    <trip id="bike45" depart="803.08" departLane="best" from="105857084#1" to="312688112#11" type="bike_bicycle"/>
    <trip id="bike46" depart="820.93" departLane="best" from="431593419#5" to="217101889#3" type="bike_bicycle"/>
    <trip id="bike47" depart="838.77" departLane="best" from="105538493#1" to="217101880#1" type="bike_bicycle"/>
    <trip id="bike48" depart="856.62" departLane="best" from="596202474#2" to="217202641#2" type="bike_bicycle"/>
    <trip id="bike49" depart="874.47" departLane="best" from="596202473#3" to="547727189#2" type="bike_bicycle"/>
    <trip id="bike51" depart="910.16" departLane="best" from="312688112#4" to="220080268#1" type="bike_bicycle"/>
    <trip id="bike52" depart="928.00" departLane="best" from="130927682#3" to="312688112#3" type="bike_bicycle"/>
    <trip id="bike53" depart="945.85" departLane="best" from="105857084#1" to="217101889#5" type="bike_bicycle"/>
    <trip id="bike54" depart="963.70" departLane="best" from="217101889#0" to="596202473#2" type="bike_bicycle"/>
    <trip id="bike55" depart="981.54" departLane="best" from="547727187" to="130927682#6" type="bike_bicycle"/>
    <trip id="bike56" depart="999.39" departLane="best" from="217101891#0" to="122601941#1" type="bike_bicycle"/>
    <trip id="bike57" depart="1017.24" departLane="best" from="547727189#6" to="547727189#3" type="bike_bicycle"/>
    <trip id="bike58" depart="1035.08" departLane="best" from="130927682#9" to="312688112#2" type="bike_bicycle"/>
    <trip id="bike61" depart="1088.62" departLane="best" from="431593419#3" to="220080268#0" type="bike_bicycle"/>
    <trip id="bike63" depart="1124.31" departLane="best" from="-106327584" to="596198028#3" type="bike_bicycle"/>
    <trip id="bike64" depart="1142.16" departLane="best" from="547727189#0" to="547727186#1" type="bike_bicycle"/>
    <trip id="bike65" depart="1160.01" departLane="best" from="132647366#0" to="105538493#2" type="bike_bicycle"/>
    <trip id="bike66" depart="1177.85" departLane="best" from="547727189#0" to="596202473#1" type="bike_bicycle"/>
    <trip id="bike67" depart="1195.70" departLane="best" from="105538493#4" to="217202636#2" type="bike_bicycle"/>
    <trip id="bike68" depart="1213.54" departLane="best" from="105538493#2" to="431593419#8" type="bike_bicycle"/>
    <trip id="bike70" depart="1249.24" departLane="best" from="217101889#3" to="220080268#1" type="bike_bicycle"/>
    <trip id="bike71" depart="1267.08" departLane="best" from="130927682#3" to="547727189#3" type="bike_bicycle"/>
    <trip id="bike72" depart="1284.93" departLane="best" from="184098324#0" to="127135482#1" type="bike_bicycle"/>
    <trip id="bike75" depart="1338.47" departLane="best" from="596202474#2" to="312688112#4" type="bike_bicycle"/>
    <trip id="bike76" depart="1356.31" departLane="best" from="217101880#0" to="217202641#2" type="bike_bicycle"/>
    <trip id="bike77" depart="1374.16" departLane="best" from="106327584" to="130927682#11" type="bike_bicycle"/>
    <trip id="bike78" depart="1392.01" departLane="best" from="132973775" to="298742255#1" type="bike_bicycle"/>
    <trip id="bike79" depart="1409.85" departLane="best" from="127135482#2" to="127135482#2" type="bike_bicycle"/>
    <trip id="bike80" depart="1427.70" departLane="best" from="105538493#2" to="312688112#11" type="bike_bicycle"/>
    <trip id="bike81" depart="1445.54" departLane="best" from="127135482#2" to="596198028#0" type="bike_bicycle"/>
    <trip id="bike83" depart="1481.24" departLane="best" from="130927682#0" to="312688112#7" type="bike_bicycle"/>
    <trip id="bike84" depart="1499.08" departLane="best" from="127135482#0" to="106327587#2" type="bike_bicycle"/>
    <trip id="bike87" depart="1552.62" departLane="best" from="431593419#8" to="122601941#2" type="bike_bicycle"/>
    <trip id="bike89" depart="1588.31" departLane="best" from="184098324#0" to="217101891#2" type="bike_bicycle"/>
    <trip id="bike90" depart="1606.16" departLane="best" from="406471826#0" to="312688112#8" type="bike_bicycle"/>
    <trip id="bike91" depart="1624.01" departLane="best" from="596202474#0" to="105857084#1" type="bike_bicycle"/>
    <trip id="bike92" depart="1641.85" departLane="best" from="172365954#0" to="172365948#2" type="bike_bicycle"/>
    <trip id="bike95" depart="1695.39" departLane="best" from="184098324#0" to="130927682#9" type="bike_bicycle"/>
    <trip id="bike96" depart="1713.24" departLane="best" from="130927682#11" to="596198028#2" type="bike_bicycle"/>
    <trip id="bike98" depart="1748.93" departLane="best" from="217202636#1" to="105538493#1" type="bike_bicycle"/>
    <trip id="bike99" depart="1766.78" departLane="best" from="596202474#2" to="547727186#1" type="bike_bicycle"/>
    <trip id="bike100" depart="1784.62" departLane="best" from="596202473#2" to="596198028#2" type="bike_bicycle"/>
    <trip id="bike102" depart="1820.32" departLane="best" from="217101889#5" to="127135482#2" type="bike_bicycle"/>
    <trip id="bike103" depart="1838.16" departLane="best" from="172365954#0" to="105538493#2" type="bike_bicycle"/>
    <trip id="bike106" depart="1891.70" departLane="best" from="217101889#0" to="217101889#3" type="bike_bicycle"/>
    <trip id="bike108" depart="1927.39" departLane="best" from="217202636#2" to="431593419#12" type="bike_bicycle"/>
    <trip id="bike112" depart="1998.78" departLane="best" from="105538493#0" to="298742255#0" type="bike_bicycle"/>
    <trip id="bike113" depart="2016.62" departLane="best" from="217101891#0" to="547727189#0" type="bike_bicycle"/>
    <trip id="bike115" depart="2052.32" departLane="best" from="105538493#4" to="122601941#2" type="bike_bicycle"/>
    <trip id="bike116" depart="2070.16" departLane="best" from="284462852" to="312688112#8" type="bike_bicycle"/>
    <trip id="bike117" depart="2088.01" departLane="best" from="130927682#0" to="106327587#1" type="bike_bicycle"/>
    <trip id="bike118" depart="2105.86" departLane="best" from="547727189#1" to="130927682#4" type="bike_bicycle"/>
    <trip id="bike119" depart="2123.70" departLane="best" from="284462852" to="312688112#11" type="bike_bicycle"/>
    <trip id="bike120" depart="2141.55" departLane="best" from="172365954#1" to="298742255#0" type="bike_bicycle"/>
    <trip id="bike121" depart="2159.39" departLane="best" from="217202628#0" to="596202473#0" type="bike_bicycle"/>
    <trip id="bike123" depart="2195.09" departLane="best" from="130927682#0" to="217101880#2" type="bike_bicycle"/>
    <trip id="bike125" depart="2230.78" departLane="best" from="132647366#1" to="431593419#7" type="bike_bicycle"/>
    <trip id="bike126" depart="2248.63" departLane="best" from="105538493#3" to="217101891#1" type="bike_bicycle"/>
    <trip id="bike128" depart="2284.32" departLane="best" from="105538493#3" to="127135482#1" type="bike_bicycle"/>
    <trip id="bike129" depart="2302.16" departLane="best" from="130927682#3" to="596198028#3" type="bike_bicycle"/>
    <trip id="bike130" depart="2320.01" departLane="best" from="547727189#0" to="547727189#6" type="bike_bicycle"/>
    <trip id="bike131" depart="2337.86" departLane="best" from="158309219" to="122601938#2" type="bike_bicycle"/>
    <trip id="bike133" depart="2373.55" departLane="best" from="284770138" to="89819896" type="bike_bicycle"/>
    <trip id="bike134" depart="2391.40" departLane="best" from="312688112#1" to="-105857084#1" type="bike_bicycle"/>
    <trip id="bike137" depart="2444.93" departLane="best" from="106327587#1" to="106327587#0" type="bike_bicycle"/>
    <trip id="bike138" depart="2462.78" departLane="best" from="105857084#0" to="283453679" type="bike_bicycle"/>
    <trip id="bike140" depart="2498.47" departLane="best" from="406471826#0" to="127135482#0" type="bike_bicycle"/>
    <trip id="bike142" depart="2534.17" departLane="best" from="217101889#5" to="596198028#0" type="bike_bicycle"/>
    <trip id="bike144" depart="2569.86" departLane="best" from="184098324#0" to="130927682#9" type="bike_bicycle"/>
    <trip id="bike145" depart="2587.70" departLane="best" from="-105857084#0" to="431593419#9" type="bike_bicycle"/>
    <trip id="bike147" depart="2623.40" departLane="best" from="431593419#0" to="283453679" type="bike_bicycle"/>
    <trip id="bike148" depart="2641.24" departLane="best" from="184098324#1" to="-105857084#1" type="bike_bicycle"/>
    <trip id="bike149" depart="2659.09" departLane="best" from="105538493#3" to="547727189#7" type="bike_bicycle"/>
    <trip id="bike150" depart="2676.93" departLane="best" from="547727189#3" to="220080268#1" type="bike_bicycle"/>
    <trip id="bike151" depart="2694.78" departLane="best" from="431593425#2" to="298742255#0" type="bike_bicycle"/>
    <trip id="bike153" depart="2730.47" departLane="best" from="132647366#0" to="547727190" type="bike_bicycle"/>
    <trip id="bike154" depart="2748.32" departLane="best" from="431593419#5" to="547727189#2" type="bike_bicycle"/>
    <trip id="bike155" depart="2766.17" departLane="best" from="547727189#3" to="127135482#1" type="bike_bicycle"/>
    <trip id="bike156" depart="2784.01" departLane="best" from="130927682#11" to="105857084#1" type="bike_bicycle"/>
    <trip id="bike157" depart="2801.86" departLane="best" from="431593419#3" to="547727189#7" type="bike_bicycle"/>
    <trip id="bike158" depart="2819.70" departLane="best" from="172365954#0" to="312688112#11" type="bike_bicycle"/>
    <trip id="bike160" depart="2855.40" departLane="best" from="547727186#0" to="596202474#1" type="bike_bicycle"/>
    <trip id="bike161" depart="2873.24" departLane="best" from="431593419#8" to="547727189#6" type="bike_bicycle"/>
    <trip id="bike162" depart="2891.09" departLane="best" from="-132740650" to="431593419#4" type="bike_bicycle"/>
    <trip id="bike163" depart="2908.94" departLane="best" from="132740666" to="596198028#3" type="bike_bicycle"/>
    <trip id="bike164" depart="2926.78" departLane="best" from="431593419#7" to="547727189#2" type="bike_bicycle"/>
    <trip id="bike165" depart="2944.63" departLane="best" from="431593419#8" to="130927682#7" type="bike_bicycle"/>
    <trip id="bike166" depart="2962.47" departLane="best" from="431593419#4" to="106327584" type="bike_bicycle"/>
    <trip id="bike167" depart="2980.32" departLane="best" from="547727187" to="547727189#1" type="bike_bicycle"/>
    <trip id="bike168" depart="2998.17" departLane="best" from="127135482#1" to="547727186#0" type="bike_bicycle"/>
    <trip id="bike170" depart="3033.86" departLane="best" from="431593419#5" to="130927682#11" type="bike_bicycle"/>
    <trip id="bike171" depart="3051.71" departLane="best" from="-132740650" to="122601941#2" type="bike_bicycle"/>
    <trip id="bike172" depart="3069.55" departLane="best" from="132740666" to="547727189#2" type="bike_bicycle"/>
    <trip id="bike173" depart="3087.40" departLane="best" from="596202473#2" to="130927682#9" type="bike_bicycle"/>
    <trip id="bike174" depart="3105.24" departLane="best" from="312688112#0" to="217101889#0" type="bike_bicycle"/>
    <trip id="bike175" depart="3123.09" departLane="best" from="596202474#0" to="220080268#0" type="bike_bicycle"/>
    <trip id="bike176" depart="3140.94" departLane="best" from="596198028#2" to="106327587#0" type="bike_bicycle"/>
    <trip id="bike177" depart="3158.78" departLane="best" from="596202473#2" to="122601941#1" type="bike_bicycle"/>
    <trip id="bike178" depart="3176.63" departLane="best" from="596202473#1" to="130927682#7" type="bike_bicycle"/>
    <trip id="bike179" depart="3194.48" departLane="best" from="105857084#0" to="217101889#5" type="bike_bicycle"/>
    <trip id="bike180" depart="3212.32" departLane="best" from="406471826#0" to="132973777" type="bike_bicycle"/>
    <trip id="bike181" depart="3230.17" departLane="best" from="284770138" to="217202641#1" type="bike_bicycle"/>
    <trip id="bike183" depart="3265.86" departLane="best" from="130927682#2" to="431593419#12" type="bike_bicycle"/>
    <trip id="bike184" depart="3283.71" departLane="best" from="-105857084#0" to="596198028#2" type="bike_bicycle"/>
    <trip id="bike185" depart="3301.55" departLane="best" from="217202628#1" to="431593419#12" type="bike_bicycle"/>
    <trip id="bike186" depart="3319.40" departLane="best" from="431593419#0" to="312688112#8" type="bike_bicycle"/>
    <trip id="bike187" depart="3337.25" departLane="best" from="158309219" to="105538493#4" type="bike_bicycle"/>
    <trip id="bike189" depart="3372.94" departLane="best" from="132647366#1" to="547727189#0" type="bike_bicycle"/>
    <trip id="bike190" depart="3390.78" departLane="best" from="406471826#0" to="132740650" type="bike_bicycle"/>
    <trip id="bike191" depart="3408.63" departLane="best" from="132647366#0" to="217101889#1" type="bike_bicycle"/>
    <trip id="bike193" depart="3444.32" departLane="best" from="106327587#0" to="217101889#3" type="bike_bicycle"/>
    <trip id="bike194" depart="3462.17" departLane="best" from="596198028#2" to="312688112#9" type="bike_bicycle"/>
    <trip id="bike195" depart="3480.02" departLane="best" from="547727189#3" to="312688112#10" type="bike_bicycle"/>
    <trip id="bike196" depart="3497.86" departLane="best" from="130927682#9" to="220080268#1" type="bike_bicycle"/>
    <trip id="bike197" depart="3515.71" departLane="best" from="-105857084#0" to="132647366#1" type="bike_bicycle"/>
    <trip id="bike199" depart="3551.40" departLane="best" from="312688112#1" to="217101891#2" type="bike_bicycle"/>
    <trip id="bike201" depart="3587.09" departLane="best" from="217101889#3" to="547727190" type="bike_bicycle"/>
</routes>
