<?xml version="1.0" encoding="UTF-8"?>

<!-- generated on 09/23/18 13:46:07 by Eclipse SUMO duarouter Version 1.0.0
<configuration xmlns:xsi="http://www.w3.org/2001/XMLSchema-instance" xsi:noNamespaceSchemaLocation="http://sumo.dlr.de/xsd/duarouterConfiguration.xsd">

    <input>
        <net-file value="osm.net.xml"/>
        <route-files value="osm.bicycle.trips.xml"/>
    </input>

    <output>
        <output-file value="osm.bicycle.rou.xml"/>
        <alternatives-output value="osm.bicycle.rou.alt.xml"/>
    </output>

    <time>
        <begin value="0"/>
        <end value="3600.0"/>
    </time>

    <report>
        <no-warnings value="true"/>
        <ignore-errors value="true"/>
        <no-step-log value="true"/>
    </report>

</configuration>
-->

<routes xmlns:xsi="http://www.w3.org/2001/XMLSchema-instance" xsi:noNamespaceSchemaLocation="http://sumo.dlr.de/xsd/routes_file.xsd">
    <vType id="bike_bicycle" vClass="bicycle"/>
    <vehicle id="bike0" type="bike_bicycle" depart="0.00" departLane="best">
        <route edges="312688112#0 132740650 -132740650"/>
    </vehicle>
    <vehicle id="bike1" type="bike_bicycle" depart="17.85" departLane="best">
        <route edges="130927682#4 130927682#5 130927682#6 130927682#7 130927682#9 130927682#11"/>
    </vehicle>
    <vehicle id="bike2" type="bike_bicycle" depart="35.69" departLane="best">
        <route edges="406471826#2 312688112#1 312688112#2 312688112#3 312688112#4 312688112#6 312688112#7 312688112#8 312688112#9"/>
    </vehicle>
    <vehicle id="bike5" type="bike_bicycle" depart="89.23" departLane="best">
        <route edges="127135482#1 127135482#2 547727190 547727189#0 547727189#1 547727189#2 547727189#3 547727189#6 217202641#0"/>
    </vehicle>
    <vehicle id="bike6" type="bike_bicycle" depart="107.08" departLane="best">
        <route edges="-132740650 312688112#1 312688112#2 312688112#3 312688112#4 596202474#2 127135482#0"/>
    </vehicle>
    <vehicle id="bike7" type="bike_bicycle" depart="124.92" departLane="best">
        <route edges="312688112#0 312688112#1 105538493#2 105538493#3 217202636#1 217202636#2 217202636#3 217101889#0 217101889#1 217101889#2 217101889#3 217101889#4 130927682#6 130927682#7 130927682#9 220080268#0 220080268#1"/>
    </vehicle>
    <vehicle id="bike8" type="bike_bicycle" depart="142.77" departLane="best">
        <route edges="127135482#1 127135482#2 547727190 547727189#0 547727189#1 547727189#2 547727189#3 283453679 217202636#1 217202636#2 106327587#0 106327587#1 312688112#3 312688112#4 312688112#6 312688112#7 312688112#8 119409677#1 119409677#2 298742255#0 298742255#1"/>
    </vehicle>
    <vehicle id="bike9" type="bike_bicycle" depart="160.62" departLane="best">
        <route edges="431593419#8 217101891#1 130927682#5 130927682#6 130927682#7 130927682#9 105857084#0 -105857084#0"/>
    </vehicle>
    <vehicle id="bike10" type="bike_bicycle" depart="178.46" departLane="best">
        <route edges="431593419#8 431593419#9 431593419#10"/>
    </vehicle>
    <vehicle id="bike11" type="bike_bicycle" depart="196.31" departLane="best">
        <route edges="132973775 217101889#1 547727189#2 547727189#3 283453679 217202636#1 217202636#2 106327587#0 106327587#1 312688112#3 312688112#4 312688112#6 312688112#7 122601938#2"/>
    </vehicle>
    <vehicle id="bike12" type="bike_bicycle" depart="214.15" departLane="best">
        <route edges="596202473#1 130927682#9 130927682#11 547727187 547727185#0 172365948#2"/>
    </vehicle>
    <vehicle id="bike15" type="bike_bicycle" depart="267.69" departLane="best">
        <route edges="431593419#8 217101891#1 130927682#5 130927682#6 130927682#7 130927682#9 130927682#11 547727187 547727186#0 431593419#3"/>
    </vehicle>
    <vehicle id="bike16" type="bike_bicycle" depart="285.54" departLane="best">
        <route edges="217202628#0 130927682#2 130927682#3 130927682#4 130927682#5 130927682#6 130927682#7 596202473#2 596202473#3 596202474#0 596202474#1"/>
    </vehicle>
    <vehicle id="bike17" type="bike_bicycle" depart="303.39" departLane="best">
        <route edges="172365948#0 431593419#2 431593419#3 431593419#4 431593419#5 431593419#7 431593419#8 217101891#1 217101891#2 547727189#3 283453679"/>
    </vehicle>
    <vehicle id="bike18" type="bike_bicycle" depart="321.23" departLane="best">
        <route edges="431593425#0 122601941#1 312688112#10 312688112#11"/>
    </vehicle>
    <vehicle id="bike21" type="bike_bicycle" depart="374.77" departLane="best">
        <route edges="127135482#2 547727190 547727189#0 132647366#0 132647366#1"/>
    </vehicle>
    <vehicle id="bike25" type="bike_bicycle" depart="446.16" departLane="best">
        <route edges="158309219 312688112#4 127135482#1"/>
    </vehicle>
    <vehicle id="bike26" type="bike_bicycle" depart="464.00" departLane="best">
        <route edges="130927682#3 130927682#4 130927682#5 130927682#6 130927682#7 596198028#2 596198028#3 596202473#0"/>
    </vehicle>
    <vehicle id="bike27" type="bike_bicycle" depart="481.85" departLane="best">
        <route edges="312688112#0 312688112#1"/>
    </vehicle>
    <vehicle id="bike30" type="bike_bicycle" depart="535.39" departLane="best">
        <route edges="596202474#1 127135482#1 127135482#2 547727190 547727189#0 547727189#1 547727189#2 547727189#3 283453679 217202636#1 217202636#2 106327587#0 106327587#1 312688112#3"/>
    </vehicle>
    <vehicle id="bike32" type="bike_bicycle" depart="571.08" departLane="best">
        <route edges="431597571 122601941#0 431593425#2"/>
    </vehicle>
    <vehicle id="bike34" type="bike_bicycle" depart="606.77" departLane="best">
        <route edges="132647366#1 217101889#3 217101889#4 130927682#6 130927682#7"/>
    </vehicle>
    <vehicle id="bike35" type="bike_bicycle" depart="624.62" departLane="best">
        <route edges="127135482#0 127135482#1 127135482#2 547727190 596198028#0 596198028#1 596198028#2 596202473#1"/>
    </vehicle>
    <vehicle id="bike36" type="bike_bicycle" depart="642.46" departLane="best">
        <route edges="547727187 547727186#0 431593419#3 431593419#4 431593419#5 431593419#7 431593419#8 217101891#1 217101891#2 547727189#3 132973777"/>
    </vehicle>
    <vehicle id="bike37" type="bike_bicycle" depart="660.31" departLane="best">
        <route edges="312688112#1 105538493#2 105538493#3 105538493#4 217101880#0 217101880#1 217101880#2"/>
    </vehicle>
    <vehicle id="bike38" type="bike_bicycle" depart="678.16" departLane="best">
        <route edges="547727190 547727189#0 132647366#0 132647366#1 217101889#3 217101889#4 217101889#5 431593419#8 217101891#1"/>
    </vehicle>
    <vehicle id="bike39" type="bike_bicycle" depart="696.00" departLane="best">
        <route edges="130927682#3 130927682#4"/>
    </vehicle>
    <vehicle id="bike40" type="bike_bicycle" depart="713.85" departLane="best">
        <route edges="217202636#3 217101889#0 217101889#1 217101889#2 217101889#3 217101889#4 130927682#6"/>
    </vehicle>
    <vehicle id="bike41" type="bike_bicycle" depart="731.70" departLane="best">
        <route edges="220080268#0 431593419#5 596202473#1 596202473#2 596202473#3 596202474#0 596202474#1 127135482#1 127135482#2 547727190"/>
    </vehicle>
    <vehicle id="bike42" type="bike_bicycle" depart="749.54" departLane="best">
        <route edges="172365954#0 431593419#4 431593419#5 596202473#1 596202473#2 596202473#3 596202474#0 596202474#1 127135482#1 127135482#2"/>
    </vehicle>
    <vehicle id="bike43" type="bike_bicycle" depart="767.39" departLane="best">
        <route edges="596202474#2 127135482#0 127135482#1 127135482#2 547727190 547727189#0 547727189#1 547727189#2 547727189#3 547727189#6 217202641#0 217202641#1"/>
    </vehicle>
    <vehicle id="bike45" type="bike_bicycle" depart="803.08" departLane="best">
        <route edges="105857084#1 -105857084#1 -105857084#0 220080268#0 431593419#5 596202473#1 596202473#2 596202473#3 596202474#0 596202474#1 312688112#6 312688112#7 312688112#8 312688112#9 312688112#10 312688112#11"/>
    </vehicle>
    <vehicle id="bike46" type="bike_bicycle" depart="820.93" departLane="best">
        <route edges="431593419#5 431593419#7 431593419#8 217101891#1 217101891#2 547727189#3 283453679 217202636#1 217202636#2 217202636#3 217101889#0 217101889#1 217101889#2 217101889#3"/>
    </vehicle>
    <vehicle id="bike47" type="bike_bicycle" depart="838.77" departLane="best">
        <route edges="105538493#1 105538493#2 105538493#3 105538493#4 217101880#0 217101880#1"/>
    </vehicle>
    <vehicle id="bike48" type="bike_bicycle" depart="856.62" departLane="best">
        <route edges="596202474#2 127135482#0 127135482#1 127135482#2 547727190 547727189#0 132647366#0 132647366#1 217101889#3 217101889#4 217101889#5 431593419#8 431593419#9 431593419#10 217202641#2"/>
    </vehicle>
    <vehicle id="bike49" type="bike_bicycle" depart="874.47" departLane="best">
        <route edges="596202473#3 596202474#0 596202474#1 127135482#1 127135482#2 547727190 547727189#0 547727189#1 547727189#2"/>
    </vehicle>
    <vehicle id="bike51" type="bike_bicycle" depart="910.16" departLane="best">
        <route edges="312688112#4 127135482#1 127135482#2 547727190 596198028#0 596198028#1 130927682#9 220080268#0 220080268#1"/>
    </vehicle>
    <vehicle id="bike52" type="bike_bicycle" depart="928.00" departLane="best">
        <route edges="130927682#3 130927682#4 217101891#2 547727189#3 283453679 217202636#1 217202636#2 106327587#0 106327587#1 312688112#3"/>
    </vehicle>
    <vehicle id="bike53" type="bike_bicycle" depart="945.85" departLane="best">
        <route edges="105857084#1 -105857084#1 -105857084#0 220080268#0 431593419#5 431593419#7 431593419#8 217101891#1 130927682#5 217101889#5"/>
    </vehicle>
    <vehicle id="bike54" type="bike_bicycle" depart="963.70" departLane="best">
        <route edges="217101889#0 217101889#1 217101889#2 217101889#3 217101889#4 130927682#6 130927682#7 596202473#2"/>
    </vehicle>
    <vehicle id="bike55" type="bike_bicycle" depart="981.54" departLane="best">
        <route edges="547727187 547727186#0 431593419#3 431593419#4 431593419#5 431593419#7 431593419#8 217101891#1 130927682#5 130927682#6"/>
    </vehicle>
    <vehicle id="bike56" type="bike_bicycle" depart="999.39" departLane="best">
        <route edges="217101891#0 217101891#1 217101891#2 547727189#3 283453679 217202636#1 217202636#2 106327587#0 106327587#1 312688112#3 312688112#4 312688112#6 312688112#7 312688112#8 119409677#1 119409677#2 298742255#0 122601941#0 122601941#1"/>
    </vehicle>
    <vehicle id="bike57" type="bike_bicycle" depart="1017.24" departLane="best">
        <route edges="547727189#6 217202641#0 130927682#3 130927682#4 217101891#2 547727189#3"/>
    </vehicle>
    <vehicle id="bike58" type="bike_bicycle" depart="1035.08" departLane="best">
        <route edges="130927682#9 220080268#0 431593419#5 431593419#7 431593419#8 217101891#1 217101891#2 547727189#3 283453679 217202636#1 217202636#2 106327587#0 106327587#1 106327587#2 105538493#1 312688112#2"/>
    </vehicle>
    <vehicle id="bike61" type="bike_bicycle" depart="1088.62" departLane="best">
        <route edges="431593419#3 431593419#4 431593419#5 596202473#1 130927682#9 220080268#0"/>
    </vehicle>
    <vehicle id="bike63" type="bike_bicycle" depart="1124.31" departLane="best">
        <route edges="-106327584 106327584 105538493#4 217101880#0 130927682#4 130927682#5 130927682#6 130927682#7 596198028#2 596198028#3"/>
    </vehicle>
    <vehicle id="bike64" type="bike_bicycle" depart="1142.16" departLane="best">
        <route edges="547727189#0 132647366#0 132647366#1 217101889#3 217101889#4 130927682#6 130927682#7 130927682#9 130927682#11 547727187 547727186#0 547727186#1"/>
    </vehicle>
    <vehicle id="bike65" type="bike_bicycle" depart="1160.01" departLane="best">
        <route edges="132647366#0 132647366#1 217101889#3 217101889#4 217101889#5 431593419#8 217101891#1 217101891#2 547727189#3 283453679 217202636#1 217202636#2 106327587#0 106327587#1 106327587#2 105538493#1 105538493#2"/>
    </vehicle>
    <vehicle id="bike66" type="bike_bicycle" depart="1177.85" departLane="best">
        <route edges="547727189#0 132647366#0 132647366#1 217101889#3 217101889#4 130927682#6 130927682#7 596198028#2 596202473#1"/>
    </vehicle>
    <vehicle id="bike67" type="bike_bicycle" depart="1195.70" departLane="best">
        <route edges="105538493#4 283453679 217202636#1 217202636#2"/>
    </vehicle>
    <vehicle id="bike68" type="bike_bicycle" depart="1213.54" departLane="best">
        <route edges="105538493#2 105538493#3 217202636#1 217202636#2 217202636#3 217101889#0 217101889#1 217101889#2 217101889#3 217101889#4 217101889#5 431593419#8"/>
    </vehicle>
    <vehicle id="bike70" type="bike_bicycle" depart="1249.24" departLane="best">
        <route edges="217101889#3 217101889#4 130927682#6 130927682#7 130927682#9 220080268#0 220080268#1"/>
    </vehicle>
    <vehicle id="bike71" type="bike_bicycle" depart="1267.08" departLane="best">
        <route edges="130927682#3 130927682#4 217101891#2 547727189#3"/>
    </vehicle>
    <vehicle id="bike72" type="bike_bicycle" depart="1284.93" departLane="best">
        <route edges="184098324#0 184098324#1 217101889#0 217101889#1 547727189#2 547727189#3 283453679 217202636#1 217202636#2 106327587#0 106327587#1 312688112#3 312688112#4 127135482#1"/>
    </vehicle>
    <vehicle id="bike75" type="bike_bicycle" depart="1338.47" departLane="best">
        <route edges="596202474#2 127135482#0 127135482#1 127135482#2 547727190 547727189#0 547727189#1 547727189#2 547727189#3 283453679 217202636#1 217202636#2 106327587#0 106327587#1 312688112#3 312688112#4"/>
    </vehicle>
    <vehicle id="bike76" type="bike_bicycle" depart="1356.31" departLane="best">
        <route edges="217101880#0 217101880#1 431593419#10 217202641#2"/>
    </vehicle>
    <vehicle id="bike77" type="bike_bicycle" depart="1374.16" departLane="best">
        <route edges="106327584 105538493#4 217101880#0 130927682#4 130927682#5 130927682#6 130927682#7 130927682#9 130927682#11"/>
    </vehicle>
    <vehicle id="bike78" type="bike_bicycle" depart="1392.01" departLane="best">
        <route edges="132973775 217101889#1 547727189#2 547727189#3 283453679 217202636#1 217202636#2 106327587#0 106327587#1 312688112#3 312688112#4 312688112#6 312688112#7 312688112#8 119409677#1 119409677#2 298742255#0 298742255#1"/>
    </vehicle>
    <vehicle id="bike79" type="bike_bicycle" depart="1409.85" departLane="best">
        <route edges="127135482#2"/>
    </vehicle>
    <vehicle id="bike80" type="bike_bicycle" depart="1427.70" departLane="best">
        <route edges="105538493#2 105538493#3 217202636#1 217202636#2 106327587#0 106327587#1 312688112#3 312688112#4 312688112#6 312688112#7 312688112#8 312688112#9 312688112#10 312688112#11"/>
    </vehicle>
    <vehicle id="bike81" type="bike_bicycle" depart="1445.54" departLane="best">
        <route edges="127135482#2 547727190 596198028#0"/>
    </vehicle>
    <vehicle id="bike83" type="bike_bicycle" depart="1481.24" departLane="best">
        <route edges="130927682#0 130927682#2 130927682#3 130927682#4 217101891#2 547727189#3 283453679 217202636#1 217202636#2 106327587#0 106327587#1 312688112#3 312688112#4 312688112#6 312688112#7"/>
    </vehicle>
    <vehicle id="bike84" type="bike_bicycle" depart="1499.08" departLane="best">
        <route edges="127135482#0 127135482#1 127135482#2 547727190 547727189#0 547727189#1 547727189#2 547727189#3 283453679 217202636#1 217202636#2 106327587#0 106327587#1 106327587#2"/>
    </vehicle>
    <vehicle id="bike87" type="bike_bicycle" depart="1552.62" departLane="best">
        <route edges="431593419#8 217101891#1 217101891#2 547727189#3 283453679 217202636#1 217202636#2 106327587#0 106327587#1 312688112#3 312688112#4 312688112#6 312688112#7 312688112#8 312688112#9 122601941#2"/>
    </vehicle>
    <vehicle id="bike89" type="bike_bicycle" depart="1588.31" departLane="best">
        <route edges="184098324#0 184098324#1 217101889#0 217101889#1 217101889#2 217101889#3 217101889#4 217101889#5 431593419#8 217101891#1 217101891#2"/>
    </vehicle>
    <vehicle id="bike90" type="bike_bicycle" depart="1606.16" departLane="best">
        <route edges="406471826#0 406471826#2 312688112#1 312688112#2 312688112#3 312688112#4 312688112#6 312688112#7 312688112#8"/>
    </vehicle>
    <vehicle id="bike91" type="bike_bicycle" depart="1624.01" departLane="best">
        <route edges="596202474#0 596202474#1 127135482#1 127135482#2 547727190 596198028#0 596198028#1 130927682#9 105857084#0 105857084#1"/>
    </vehicle>
    <vehicle id="bike92" type="bike_bicycle" depart="1641.85" departLane="best">
        <route edges="172365954#0 172365954#1 547727187 547727185#0 172365948#2"/>
    </vehicle>
    <vehicle id="bike95" type="bike_bicycle" depart="1695.39" departLane="best">
        <route edges="184098324#0 184098324#1 217101889#0 217101889#1 217101889#2 217101889#3 217101889#4 130927682#6 130927682#7 130927682#9"/>
    </vehicle>
    <vehicle id="bike96" type="bike_bicycle" depart="1713.24" departLane="best">
        <route edges="130927682#11 547727187 547727186#0 431593419#3 431593419#4 431593419#5 596202473#1 596198028#2"/>
    </vehicle>
    <vehicle id="bike98" type="bike_bicycle" depart="1748.93" departLane="best">
        <route edges="217202636#1 217202636#2 106327587#0 106327587#1 106327587#2 105538493#1"/>
    </vehicle>
    <vehicle id="bike99" type="bike_bicycle" depart="1766.78" departLane="best">
        <route edges="596202474#2 127135482#0 127135482#1 127135482#2 547727190 596198028#0 596198028#1 130927682#9 130927682#11 547727187 547727186#0 547727186#1"/>
    </vehicle>
    <vehicle id="bike100" type="bike_bicycle" depart="1784.62" departLane="best">
        <route edges="596202473#2 596202473#3 596202474#0 596202474#1 127135482#1 127135482#2 547727190 596198028#0 596198028#1 596198028#2"/>
    </vehicle>
    <vehicle id="bike102" type="bike_bicycle" depart="1820.32" departLane="best">
        <route edges="217101889#5 431593419#8 217101891#1 217101891#2 547727189#3 283453679 217202636#1 217202636#2 106327587#0 106327587#1 312688112#3 312688112#4 127135482#1 127135482#2"/>
    </vehicle>
    <vehicle id="bike103" type="bike_bicycle" depart="1838.16" departLane="best">
        <route edges="172365954#0 431593419#4 431593419#5 431593419#7 431593419#8 217101891#1 217101891#2 547727189#3 283453679 217202636#1 217202636#2 106327587#0 106327587#1 106327587#2 105538493#1 105538493#2"/>
    </vehicle>
    <vehicle id="bike106" type="bike_bicycle" depart="1891.70" departLane="best">
        <route edges="217101889#0 217101889#1 217101889#2 217101889#3"/>
    </vehicle>
    <vehicle id="bike108" type="bike_bicycle" depart="1927.39" departLane="best">
        <route edges="217202636#2 217202636#3 217101889#0 217101889#1 547727189#2 547727189#3 547727189#6 217202641#0 217202641#1 431593419#11 431593419#12"/>
    </vehicle>
    <vehicle id="bike112" type="bike_bicycle" depart="1998.78" departLane="best">
        <route edges="105538493#0 105538493#1 312688112#2 312688112#3 312688112#4 312688112#6 312688112#7 312688112#8 119409677#1 119409677#2 298742255#0"/>
    </vehicle>
    <vehicle id="bike113" type="bike_bicycle" depart="2016.62" departLane="best">
        <route edges="217101891#0 217101891#1 217101891#2 547727189#3 283453679 217202636#1 217202636#2 106327587#0 106327587#1 312688112#3 312688112#4 127135482#1 127135482#2 547727190 547727189#0"/>
    </vehicle>
    <vehicle id="bike115" type="bike_bicycle" depart="2052.32" departLane="best">
        <route edges="105538493#4 283453679 217202636#1 217202636#2 106327587#0 106327587#1 312688112#3 312688112#4 312688112#6 312688112#7 312688112#8 312688112#9 122601941#2"/>
    </vehicle>
    <vehicle id="bike116" type="bike_bicycle" depart="2070.16" departLane="best">
        <route edges="284462852 132973778 217202636#2 106327587#0 106327587#1 312688112#3 312688112#4 312688112#6 312688112#7 312688112#8"/>
    </vehicle>
    <vehicle id="bike117" type="bike_bicycle" depart="2088.01" departLane="best">
        <route edges="130927682#0 130927682#2 130927682#3 130927682#4 217101891#2 547727189#3 283453679 217202636#1 217202636#2 106327587#0 106327587#1"/>
    </vehicle>
    <vehicle id="bike118" type="bike_bicycle" depart="2105.86" departLane="best">
        <route edges="547727189#1 547727189#2 547727189#3 217101880#0 130927682#4"/>
    </vehicle>
    <vehicle id="bike119" type="bike_bicycle" depart="2123.70" departLane="best">
        <route edges="284462852 132973778 217202636#2 106327587#0 106327587#1 312688112#3 312688112#4 312688112#6 312688112#7 312688112#8 312688112#9 312688112#10 312688112#11"/>
    </vehicle>
    <vehicle id="bike120" type="bike_bicycle" depart="2141.55" departLane="best">
        <route edges="172365954#1 547727187 547727186#0 431593419#3 431593419#4 431593419#5 596202473#1 596202473#2 596202473#3 596202474#0 596202474#1 312688112#6 312688112#7 312688112#8 119409677#1 119409677#2 298742255#0"/>
    </vehicle>
    <vehicle id="bike121" type="bike_bicycle" depart="2159.39" departLane="best">
        <route edges="217202628#0 130927682#2 130927682#3 130927682#4 130927682#5 130927682#6 130927682#7 596198028#2 596198028#3 596202473#0"/>
    </vehicle>
    <vehicle id="bike123" type="bike_bicycle" depart="2195.09" departLane="best">
        <route edges="130927682#0 130927682#2 130927682#3 217101880#1 217101880#2"/>
    </vehicle>
    <vehicle id="bike125" type="bike_bicycle" depart="2230.78" departLane="best">
        <route edges="132647366#1 217101889#3 217101889#4 130927682#6 130927682#7 596198028#2 431593419#7"/>
    </vehicle>
    <vehicle id="bike126" type="bike_bicycle" depart="2248.63" departLane="best">
        <route edges="105538493#3 217202636#1 217202636#2 217202636#3 217101889#0 217101889#1 217101889#2 217101889#3 217101889#4 217101889#5 431593419#8 217101891#1"/>
    </vehicle>
    <vehicle id="bike128" type="bike_bicycle" depart="2284.32" departLane="best">
        <route edges="105538493#3 217202636#1 217202636#2 106327587#0 106327587#1 312688112#3 312688112#4 127135482#1"/>
    </vehicle>
    <vehicle id="bike129" type="bike_bicycle" depart="2302.16" departLane="best">
        <route edges="130927682#3 130927682#4 130927682#5 130927682#6 130927682#7 596198028#2 596198028#3"/>
    </vehicle>
    <vehicle id="bike130" type="bike_bicycle" depart="2320.01" departLane="best">
        <route edges="547727189#0 547727189#1 547727189#2 547727189#3 547727189#6"/>
    </vehicle>
    <vehicle id="bike131" type="bike_bicycle" depart="2337.86" departLane="best">
        <route edges="158309219 312688112#4 312688112#6 312688112#7 122601938#2"/>
    </vehicle>
    <vehicle id="bike133" type="bike_bicycle" depart="2373.55" departLane="best">
        <route edges="284770138 284770138-AddedOffRampEdge 288492778 43990256 89819896"/>
    </vehicle>
    <vehicle id="bike134" type="bike_bicycle" depart="2391.40" departLane="best">
        <route edges="312688112#1 105538493#2 105538493#3 217202636#1 217202636#2 217202636#3 217101889#0 217101889#1 217101889#2 217101889#3 217101889#4 130927682#6 130927682#7 130927682#9 105857084#0 105857084#1 -105857084#1"/>
    </vehicle>
    <vehicle id="bike137" type="bike_bicycle" depart="2444.93" departLane="best">
        <route edges="106327587#1 312688112#3 184098324#0 184098324#1 217101889#0 217101889#1 547727189#2 547727189#3 283453679 217202636#1 217202636#2 106327587#0"/>
    </vehicle>
    <vehicle id="bike138" type="bike_bicycle" depart="2462.78" departLane="best">
        <route edges="105857084#0 -105857084#0 220080268#0 431593419#5 431593419#7 431593419#8 217101891#1 217101891#2 547727189#3 283453679"/>
    </vehicle>
    <vehicle id="bike140" type="bike_bicycle" depart="2498.47" departLane="best">
        <route edges="406471826#0 406471826#2 312688112#1 312688112#2 312688112#3 312688112#4 596202474#2 127135482#0"/>
    </vehicle>
    <vehicle id="bike142" type="bike_bicycle" depart="2534.17" departLane="best">
        <route edges="217101889#5 431593419#8 217101891#1 217101891#2 547727189#3 283453679 217202636#1 217202636#2 106327587#0 106327587#1 312688112#3 312688112#4 127135482#1 127135482#2 547727190 596198028#0"/>
    </vehicle>
    <vehicle id="bike144" type="bike_bicycle" depart="2569.86" departLane="best">
        <route edges="184098324#0 184098324#1 217101889#0 217101889#1 217101889#2 217101889#3 217101889#4 130927682#6 130927682#7 130927682#9"/>
    </vehicle>
    <vehicle id="bike145" type="bike_bicycle" depart="2587.70" departLane="best">
        <route edges="-105857084#0 220080268#0 431593419#5 431593419#7 431593419#8 431593419#9"/>
    </vehicle>
    <vehicle id="bike147" type="bike_bicycle" depart="2623.40" departLane="best">
        <route edges="431593419#0 431593419#2 431593419#3 431593419#4 431593419#5 431593419#7 431593419#8 217101891#1 217101891#2 547727189#3 283453679"/>
    </vehicle>
    <vehicle id="bike148" type="bike_bicycle" depart="2641.24" departLane="best">
        <route edges="184098324#1 217101889#0 217101889#1 217101889#2 217101889#3 217101889#4 130927682#6 130927682#7 130927682#9 105857084#0 105857084#1 -105857084#1"/>
    </vehicle>
    <vehicle id="bike149" type="bike_bicycle" depart="2659.09" departLane="best">
        <route edges="105538493#3 105538493#4 547727189#6 547727189#7"/>
    </vehicle>
    <vehicle id="bike150" type="bike_bicycle" depart="2676.93" departLane="best">
        <route edges="547727189#3 217101880#0 130927682#4 130927682#5 130927682#6 130927682#7 130927682#9 220080268#0 220080268#1"/>
    </vehicle>
    <vehicle id="bike151" type="bike_bicycle" depart="2694.78" departLane="best">
        <route edges="431593425#2 119409677#2 298742255#0"/>
    </vehicle>
    <vehicle id="bike153" type="bike_bicycle" depart="2730.47" departLane="best">
        <route edges="132647366#0 132647366#1 217101889#3 217101889#4 130927682#6 130927682#7 596202473#2 596202473#3 596202474#0 596202474#1 127135482#1 127135482#2 547727190"/>
    </vehicle>
    <vehicle id="bike154" type="bike_bicycle" depart="2748.32" departLane="best">
        <route edges="431593419#5 431593419#7 431593419#8 217101891#1 217101891#2 547727189#3 283453679 217202636#1 217202636#2 217202636#3 217101889#0 217101889#1 547727189#2"/>
    </vehicle>
    <vehicle id="bike155" type="bike_bicycle" depart="2766.17" departLane="best">
        <route edges="547727189#3 283453679 217202636#1 217202636#2 106327587#0 106327587#1 312688112#3 312688112#4 127135482#1"/>
    </vehicle>
    <vehicle id="bike156" type="bike_bicycle" depart="2784.01" departLane="best">
        <route edges="130927682#11 547727187 547727186#0 431593419#3 431593419#4 431593419#5 596202473#1 130927682#9 105857084#0 105857084#1"/>
    </vehicle>
    <vehicle id="bike157" type="bike_bicycle" depart="2801.86" departLane="best">
        <route edges="431593419#3 431593419#4 431593419#5 431593419#7 431593419#8 217101891#1 217101891#2 547727189#3 547727189#6 547727189#7"/>
    </vehicle>
    <vehicle id="bike158" type="bike_bicycle" depart="2819.70" departLane="best">
        <route edges="172365954#0 431593419#4 431593419#5 596202473#1 596202473#2 596202473#3 596202474#0 596202474#1 312688112#6 312688112#7 312688112#8 312688112#9 312688112#10 312688112#11"/>
    </vehicle>
    <vehicle id="bike160" type="bike_bicycle" depart="2855.40" departLane="best">
        <route edges="547727186#0 431593419#3 431593419#4 431593419#5 596202473#1 596202473#2 596202473#3 596202474#0 596202474#1"/>
    </vehicle>
    <vehicle id="bike161" type="bike_bicycle" depart="2873.24" departLane="best">
        <route edges="431593419#8 217101891#1 217101891#2 547727189#3 547727189#6"/>
    </vehicle>
    <vehicle id="bike162" type="bike_bicycle" depart="2891.09" departLane="best">
        <route edges="-132740650 312688112#1 105538493#2 105538493#3 217202636#1 217202636#2 217202636#3 217101889#0 217101889#1 217101889#2 217101889#3 217101889#4 130927682#6 130927682#7 130927682#9 130927682#11 547727187 547727186#0 431593419#3 431593419#4"/>
    </vehicle>
    <vehicle id="bike163" type="bike_bicycle" depart="2908.94" departLane="best">
        <route edges="132740666 -132740666 406471826#2 312688112#1 105538493#2 105538493#3 217202636#1 217202636#2 217202636#3 217101889#0 217101889#1 217101889#2 217101889#3 217101889#4 130927682#6 130927682#7 596198028#2 596198028#3"/>
    </vehicle>
    <vehicle id="bike164" type="bike_bicycle" depart="2926.78" departLane="best">
        <route edges="431593419#7 431593419#8 217101891#1 217101891#2 547727189#3 283453679 217202636#1 217202636#2 217202636#3 217101889#0 217101889#1 547727189#2"/>
    </vehicle>
    <vehicle id="bike165" type="bike_bicycle" depart="2944.63" departLane="best">
        <route edges="431593419#8 217101891#1 130927682#5 130927682#6 130927682#7"/>
    </vehicle>
    <vehicle id="bike166" type="bike_bicycle" depart="2962.47" departLane="best">
        <route edges="431593419#4 431593419#5 431593419#7 431593419#8 217101891#1 217101891#2 547727189#3 283453679 -106327584 106327584"/>
    </vehicle>
    <vehicle id="bike167" type="bike_bicycle" depart="2980.32" departLane="best">
        <route edges="547727187 547727186#0 431593419#3 431593419#4 431593419#5 596202473#1 596202473#2 596202473#3 596202474#0 596202474#1 127135482#1 127135482#2 547727190 547727189#0 547727189#1"/>
    </vehicle>
    <vehicle id="bike168" type="bike_bicycle" depart="2998.17" departLane="best">