<?xml version="1.0" encoding="UTF-8"?>

<!-- generated on 09/23/18 13:46:06 by Eclipse SUMO polyconvert Version 1.0.0
<configuration xmlns:xsi="http://www.w3.org/2001/XMLSchema-instance" xsi:noNamespaceSchemaLocation="http://sumo.dlr.de/xsd/polyconvertConfiguration.xsd">

    <input>
        <net-file value="D:\Sumo\2018-09-23-13-46-05\osm.net.xml"/>
        <osm-files value="D:\Sumo\2018-09-23-13-46-05\osm_bbox.osm.xml"/>
        <osm.keep-full-type value="true"/>
        <type-file value="C:\Program%20Files%20(x86)\Eclipse\Sumo\data\typemap\osmPolyconvert.typ.xml"/>
    </input>

    <output>
        <output-file value="D:\Sumo\2018-09-23-13-46-05\osm.poly.xml"/>
    </output>

    <processing>
        <poi-layer-offset value="5"/>
    </processing>

    <report>
        <verbose value="true"/>
    </report>

</configuration>
-->

<additional xmlns:xsi="http://www.w3.org/2001/XMLSchema-instance" xsi:noNamespaceSchemaLocation="http://sumo.dlr.de/xsd/additional_file.xsd">
    <location netOffset="-671365.75,-2285446.50" convBoundary="-0.00,-0.00,8233.25,3691.09" origBoundary="-103.354822,20.659759,-103.275977,20.696819" projParameter="+proj=utm +zone=13 +ellps=WGS84 +datum=WGS84 +units=m +no_defs"/>

    <poly id="105867464" type="amenity.fountain" color="237,199,199" fill="1" layer="-1.00" shape="1259.642333,1843.665063 1256.111525,1843.529348 1255.998434,1846.440000 1213.753318,1844.857034 1213.866741,1841.913171 1210.606698,1841.791302 1210.264395,1850.822158 1214.128588,1850.961269 1214.242577,1847.962054 1255.852391,1849.516389 1255.737943,1852.559885 1259.300004,1852.695920 1259.642333,1843.665063"/>
    <poly id="106328327" type="tourism.museum" color="207,245,201" fill="1" layer="-2.00" shape="881.429862,1928.222290 893.196893,1928.895826 892.538102,1940.370249 880.771079,1939.696712 881.429862,1928.222290"/>
    <poly id="106328328" type="tourism.museum" color="207,245,201" fill="1" layer="-2.00" shape="870.647659,1913.730507 892.497136,1914.750395 893.532214,1892.939034 871.682822,1891.908076 870.647659,1913.730507"/>
    <poly id="106328330" type="tourism.museum" color="207,245,201" fill="1" layer="-2.00" shape="903.572503,1939.320242 915.360251,1940.005077 916.015444,1928.884906 904.227689,1928.200071 903.572503,1939.320242"/>
    <poly id="106328331" type="tourism.museum" color="207,245,201" fill="1" layer="-2.00" shape="908.954543,1897.890227 921.338760,1898.326502 921.603386,1890.767369 909.229582,1890.331201 908.954543,1897.890227"/>
    <poly id="106328332" type="tourism.museum" color="207,245,201" fill="1" layer="-2.00" shape="904.501088,1915.692070 912.520361,1916.050621 912.118528,1924.804076 904.099372,1924.434454 904.501088,1915.692070"/>
    <poly id="124947514" type="leisure.park" color="207,245,201" fill="1" layer="-2.00" shape="1164.054004,1832.469770 1163.469356,1851.971796 1182.447756,1852.542020 1182.597338,1858.300732 1204.786393,1858.726625 1204.835123,1853.955302 1264.230415,1855.558456 1264.173524,1861.126845 1321.149707,1862.904773 1321.006631,1857.533626 1346.483156,1859.476887 1346.829185,1839.894910 1343.796421,1839.963554 1321.989755,1839.840320 1322.234430,1835.270284 1265.460062,1833.106919 1265.200911,1838.075381 1242.174495,1836.998709 1235.217626,1836.672999 1231.853511,1836.538992 1205.430255,1835.471960 1205.683039,1830.104859 1182.481329,1829.867914 1181.640566,1833.634713 1164.054004,1832.469770"/>
    <poly id="144358065" type="building.yes" color="255,230,230" fill="1" layer="-1.00" shape="864.824049,1782.806118 938.532986,1786.735090 942.350616,1715.827884 868.641368,1711.898918 864.824049,1782.806118"/>
    <poly id="144358065#1" type="tourism.attraction" color="207,245,201" fill="1" layer="-2.00" shape="864.824049,1782.806118 938.532986,1786.735090 942.350616,1715.827884 868.641368,1711.898918 864.824049,1782.806118"/>
    <poly id="144358066" type="leisure.park" color="207,245,201" fill="1" layer="-2.00" shape="862.778428,1819.941190 867.287886,1820.153227 865.900568,1858.125372 867.181381,1862.290237 869.388486,1865.534538 871.970275,1867.797297 875.292292,1868.993667 1007.557196,1872.999617 1011.574777,1871.379878 1014.117417,1867.265077 1018.850360,1803.696528 1017.393651,1801.456295 1014.130863,1800.581576 871.873789,1795.488403 867.532974,1796.108447 864.665061,1798.404228 863.456003,1802.532642 862.778428,1819.941190"/>
    <poly id="144358067" type="amenity.townhall" color="237,199,199" fill="1" layer="-1.00" shape="692.945985,1941.270511 749.280463,1944.634290 754.965629,1887.729407 697.043591,1885.744465 695.642990,1914.826059 692.945985,1941.270511"/>
    <poly id="144358067#1" type="building.yes" color="255,230,230" fill="1" layer="-1.00" shape="692.945985,1941.270511 749.280463,1944.634290 754.965629,1887.729407 697.043591,1885.744465 695.642990,1914.826059 692.945985,1941.270511"/>
    <poly id="144358068" type="amenity.marketplace" color="237,199,199" fill="1" layer="-1.00" shape="522.148261,1936.509579 596.902426,1939.019524 600.006932,1883.782304 557.337198,1881.964152 524.331938,1880.609781 522.148261,1936.509579"/>
    <poly id="144358069" type="tourism.museum" color="207,245,201" fill="1" layer="-2.00" shape="855.935944,1949.463252 926.718838,1952.122400 930.866332,1881.561766 859.887074,1877.693831 855.935944,1949.463252"/>
    <poly id="144358070" type="leisure.park" color="207,245,201" fill="1" layer="-2.00" shape="769.329716,1946.443902 846.482577,1948.735821 848.960509,1886.561440 772.433295,1885.216983 769.329716,1946.443902"/>
    <poly id="144358072" type="leisure.park" color="207,245,201" fill="1" layer="-2.00" shape="698.395586,1863.482410 756.787923,1866.357860 760.429856,1793.190299 702.037265,1790.314854 698.395586,1863.482410"/>
    <poly id="144358074" type="amenity.place_of_worship" color="237,199,199" fill="1" layer="-1.00" shape="778.271727,1811.230362 827.214533,1813.013341 827.446974,1794.293822 813.326763,1793.452432 813.341653,1791.991147 798.979901,1791.335523 798.901374,1792.906874 779.390126,1792.475587 778.271727,1811.230362"/>
    <poly id="144358074#1" type="building.yes" color="255,230,230" fill="1" layer="-1.00" shape="778.271727,1811.230362 827.214533,1813.013341 827.446974,1794.293822 813.326763,1793.452432 813.341653,1791.991147 798.979901,1791.335523 798.901374,1792.906874 779.390126,1792.475587 778.271727,1811.230362"/>
    <poly id="144358075" type="amenity.courthouse" color="237,199,199" fill="1" layer="-1.00" shape="1020.733157,1951.066328 1077.914220,1954.174131 1081.691403,1885.248285 1024.509993,1882.151557 1020.733157,1951.066328"/>
    <poly id="144358075#1" type="building.yes" color="255,230,230" fill="1" layer="-1.00" shape="1020.733157,1951.066328 1077.914220,1954.174131 1081.691403,1885.248285 1024.509993,1882.151557 1020.733157,1951.066328"/>
    <poly id="144358077" type="leisure.park" color="207,245,201" fill="1" layer="-2.00" shape="849.927641,1784.514300 853.769722,1714.238430 789.079451,1710.733878 785.237641,1781.009744 849.927641,1784.514300"/>
    <poly id="144358078" type="building.public" color="255,230,230" fill="1" layer="-1.00" shape="940.331090,1918.980294 967.012285,1920.282054 966.460338,1931.491852 953.942512,1930.877036 953.468212,1940.604044 938.586345,1939.876557 937.993904,1951.993804 1009.726701,1955.504423 1013.298204,1883.221822 942.273206,1879.751646 940.331090,1918.980294"/>
    <poly id="158307221" type="tourism.attraction" color="207,245,201" fill="1" layer="-2.00" shape="1325.447597,1682.970150 1196.291657,1717.190279 1155.730846,1715.934688 1155.674939,1723.451669 1193.356966,1724.998938 1236.095634,1724.195423 1283.485527,1718.911290 1329.965858,1710.872255 1325.447597,1682.970150"/>
    <poly id="158307526" type="building.yes" color="255,230,230" fill="1" layer="-1.00" shape="930.656555,1693.676374 932.728696,1693.808217 933.531775,1675.338083 924.754210,1674.739299 925.296425,1661.414751 941.179388,1662.085984 941.810900,1650.223783 947.040972,1650.277113 944.198133,1700.180560 940.351571,1703.418499 930.051349,1702.959185 930.656555,1693.676374"/>
    <poly id="158307961" type="building.yes" color="255,230,230" fill="1" layer="-1.00" shape="713.746913,1610.411813 717.340577,1614.611284 731.308830,1615.041389 733.072565,1606.578597 738.245772,1606.077707 738.285345,1602.192021 714.682797,1601.387016 713.746913,1610.411813"/>
    <poly id="158308187" type="amenity.theatre" color="237,199,199" fill="1" layer="-1.00" shape="489.448517,1604.951780 493.354242,1550.807736 505.784487,1551.864154 505.417563,1545.937187 521.054913,1547.203377 521.285318,1552.210025 534.005420,1552.427981 533.087514,1600.668110 526.889712,1605.609371 489.448517,1604.951780"/>
    <poly id="158308187#1" type="building.yes" color="255,230,230" fill="1" layer="-1.00" shape="489.448517,1604.951780 493.354242,1550.807736 505.784487,1551.864154 505.417563,1545.937187 521.054913,1547.203377 521.285318,1552.210025 534.005420,1552.427981 533.087514,1600.668110 526.889712,1605.609371 489.448517,1604.951780"/>
    <poly id="158714114" type="amenity.post_office" color="237,199,199" fill="1" layer="-1.00" shape="1057.912499,2016.114350 1076.094514,2017.108132 1077.944675,1968.545254 1059.759896,1967.817163 1057.912499,2016.114350"/>
    <poly id="158714116" type="amenity.university" color="237,199,199" fill="1" layer="-1.00" shape="1057.628721,2016.355027 1076.050695,2017.318043 1075.523380,2039.378170 1018.925969,2038.324535 1016.175249,2035.262878 1019.639924,1968.348859 1022.780403,1965.889813 1059.404884,1967.891040 1057.628721,2016.355027"/>
    <poly id="158714119" type="building.industrial" color="255,230,230" fill="1" layer="-1.00" shape="931.867531,2031.668248 936.574216,2036.034130 1004.569305,2038.211273 1008.426500,1965.499794 940.299743,1962.922743 936.344620,1965.572783 931.867531,2031.668248"/>
    <poly id="159782342" type="leisure.park" color="207,245,201" fill="1" layer="-2.00" shape="681.847814,1699.920998 703.081632,1701.056136 705.670748,1621.766415 677.416805,1620.360524 675.462978,1671.036933 682.326592,1671.317170 681.847814,1699.920998"/>
    <poly id="165212179" type="amenity.parking" color="184,184,179" fill="1" layer="-1.00" shape="767.865484,2006.303589 798.382064,2008.507745 801.952654,1958.722427 771.129497,1957.965513 767.865484,2006.303589"/>
    <poly id="172245648" type="leisure.park" color="207,245,201" fill="1" layer="-2.00" shape="1134.694656,1874.053524 1157.793832,1875.141868 1158.725500,1852.266575 1163.469356,1851.971796 1164.054004,1832.469770 1159.898545,1832.283411 1160.719961,1805.919469 1137.339281,1804.839327 1134.694656,1874.053524"/>
    <poly id="220547356" type="amenity.place_of_worship" color="237,199,199" fill="1" layer="-1.00" shape="660.103389,1879.943308 686.320879,1880.741682 681.614131,1944.930495 654.586933,1943.847090 660.103389,1879.943308"/>
    <poly id="220547356#1" type="building.yes" color="255,230,230" fill="1" layer="-1.00" shape="660.103389,1879.943308 686.320879,1880.741682 681.614131,1944.930495 654.586933,1943.847090 660.103389,1879.943308"/>
    <poly id="263646016" type="amenity.cafe" color="237,199,199" fill="1" layer="-1.00" shape="1136.991547,2046.072837 1146.725814,2046.836518 1148.297719,2010.239089 1137.771643,2009.467325 1136.991547,2046.072837"/>
    <poly id="263646016#1" type="building.yes" color="255,230,230" fill="1" layer="-1.00" shape="1136.991547,2046.072837 1146.725814,2046.836518 1148.297719,2010.239089 1137.771643,2009.467325 1136.991547,2046.072837"/>
    <poly id="368640819" type="building.commercial" color="255,230,230" fill="1" layer="-1.00" shape="797.778341,1674.054099 822.939870,1673.192248 826.651299,1638.222026 799.835013,1636.841648 797.778341,1674.054099"/>
    <poly id="388586512" type="amenity.place_of_worship" color="237,199,199" fill="1" layer="-1.00" shape="1028.136289,1773.865002 1053.309988,1774.863641 1055.740429,1739.880357 1057.068137,1714.938744 1031.317607,1714.299581 1028.136289,1773.865002"/>
    <poly id="388586512#1" type="building.yes" color="255,230,230" fill="1" layer="-1.00" shape="1028.136289,1773.865002 1053.309988,1774.863641 1055.740429,1739.880357 1057.068137,1714.938744 1031.317607,1714.299581 1028.136289,1773.865002"/>
    <poly id="388588509" type="building.university" color="255,230,230" fill="1" layer="-1.00" shape="1053.309988,1774.863641 1086.000549,1775.429742 1086.563006,1774.427976 1089.671860,1735.255515 1082.096197,1735.322131 1081.623650,1740.786630 1055.740429,1739.880357 1053.309988,1774.863641"/>
    <poly id="388588855" type="building.yes" color="255,230,230" fill="1" layer="-1.00" shape="856.936987,2014.806332 859.061321,1987.326398 875.572983,1986.597924 875.068749,1997.221418 888.557678,1997.624650 884.404359,2015.628842 856.936987,2014.806332"/>
    <poly id="388588855#1" type="tourism.hotel" color="207,245,201" fill="1" layer="-2.00" shape="856.936987,2014.806332 859.061321,1987.326398 875.572983,1986.597924 875.068749,1997.221418 888.557678,1997.624650 884.404359,2015.628842 856.936987,2014.806332"/>
    <poly id="388589791" type="building.yes" color="255,230,230" fill="1" layer="-1.00" shape="800.855233,1766.809144 809.217449,1758.059301 832.328428,1759.025519 840.386939,1767.809833 800.855233,1766.809144"/>
    <poly id="388589793" type="building.yes" color="255,230,230" fill="1" layer="-1.00" shape="796.429719,1759.379373 798.867633,1723.610096 808.196794,1727.336596 806.846587,1752.477257 796.429719,1759.379373"/>
    <poly id="388589795" type="building.yes" color="255,230,230" fill="1" layer="-1.00" shape="843.118884,1763.519794 835.194718,1752.799338 836.291805,1728.984675 844.758095,1722.295204 843.118884,1763.519794"/>
    <poly id="388589798" type="building.yes" color="255,230,230" fill="1" layer="-1.00" shape="803.653119,1716.163457 811.653862,1726.530388 831.919150,1726.592959 843.888094,1717.691670 803.653119,1716.163457"/>
    <poly id="388589800" type="building.civic" color="255,230,230" fill="1" layer="-1.00" shape="822.572756,1748.076047 826.061794,1748.222316 828.896310,1746.136546 829.141680,1742.507598 826.731636,1739.748382 822.919514,1739.609893 820.254512,1741.420603 819.678164,1745.832254 822.572756,1748.076047"/>
    <poly id="480916487" type="historic.yes" color="128,255,128" fill="1" layer="-1.00" shape="419.671031,1624.204164 418.331231,1645.303827 441.973008,1646.341322 441.318121,1624.667805 419.671031,1624.204164"/>
    <poly id="480916488" type="amenity.library" color="237,199,199" fill="1" layer="-1.00" shape="631.536877,1676.922665 631.094449,1692.750374 667.398045,1695.622080 669.118753,1690.358503 681.693802,1690.486530 682.963264,1676.327961 665.074800,1676.145841 631.570793,1673.590496 631.536877,1676.922665"/>
    <poly id="480916488#1" type="building.yes" color="255,230,230" fill="1" layer="-1.00" shape="631.536877,1676.922665 631.094449,1692.750374 667.398045,1695.622080 669.118753,1690.358503 681.693802,1690.486530 682.963264,1676.327961 665.074800,1676.145841 631.570793,1673.590496 631.536877,1676.922665"/>
    <poly id="480916490" type="leisure.park" color="207,245,201" fill="1" layer="-2.00" shape="1024.911772,1793.749732 1031.547345,1801.058191 1084.415483,1804.144114 1084.594218,1800.924131 1084.927348,1794.827133 1086.000549,1775.429742 1053.309988,1774.863641 1028.136289,1773.865002 1024.911772,1793.749732"/>
    <poly id="547126071" type="amenity.fountain" color="237,199,199" fill="1" layer="-1.00" shape="1231.826635,1803.468116 1231.878064,1804.553649 1232.294928,1805.565414 1233.036910,1806.370142 1234.000731,1806.878205 1235.082886,1807.022117 1236.158468,1806.789531 1237.081392,1806.201097 1237.746571,1805.344314 1238.080171,1804.306999 1238.039274,1803.210502 1237.622297,1802.209807 1236.880315,1801.405079 1235.916494,1800.897015 1234.823920,1800.752997 1233.758756,1800.985690 1232.835832,1801.574124 1232.160235,1802.430801 1231.826635,1803.468116"/>
    <poly id="547126755" type="amenity.fountain" color="237,199,199" fill="1" layer="-1.00" shape="1122.034334,1857.793095 1134.355060,1858.328519 1135.956252,1821.919612 1123.635612,1821.373119 1122.034334,1857.793095"/>
    <poly id="547307815" type="building.church" color="255,230,230" fill="1" layer="-1.00" shape="1093.968225,1898.249746 1127.327155,1899.664203 1127.819411,1888.188077 1094.460459,1886.773621 1093.968225,1898.249746"/>
    <poly id="547727191" type="amenity.parking" color="184,184,179" fill="1" layer="-1.00" shape="524.331938,1880.609781 557.337198,1881.964152 600.006932,1883.782304 596.902426,1939.019524 522.148261,1936.509579 524.331938,1880.609781"/>
    <poly id="562057473" type="historic.monument" color="128,255,128" fill="1" layer="-1.00" shape="808.456327,1925.806733 806.083776,1925.505769 804.283740,1924.236349 802.485170,1922.823015 801.522771,1921.152485 800.700095,1919.062662 800.441474,1916.834658 800.472608,1913.779244 801.478888,1911.143412 803.323298,1909.080766 805.428657,1907.995070 808.364661,1907.194626 811.168652,1907.079269 814.234945,1907.808019 816.447540,1909.491290 817.685480,1911.729274 818.769102,1914.796048 818.885175,1917.720104 818.716756,1919.932686 817.579323,1922.146464 816.033619,1923.525720 814.060878,1924.889553 811.675580,1925.839538 808.456327,1925.806733"/>
    <poly id="596203352" type="leisure.park" color="207,245,201" fill="1" layer="-2.00" shape="805.809500,1250.850973 797.988815,1251.424526 788.852463,1255.339340 786.014322,1372.347052 782.660640,1455.061144 775.946729,1537.253868 769.435573,1625.117262 765.618317,1703.220910 761.451679,1785.959956 755.214289,1876.616169 749.091998,1951.884193 743.446228,2034.586044 738.181394,2116.716062 733.981677,2200.661588 728.636513,2286.588319 721.608085,2373.084697 715.858747,2471.075245 708.803196,2560.239587 702.992939,2660.122754 695.974686,2759.949335 689.840121,2858.943493 687.004004,2916.431012 683.397506,2972.836751 677.707543,3060.918959 671.596833,3168.825936 690.283498,3169.248827 696.316667,3061.806060 703.595889,2974.205046 707.547029,2917.725317 710.183474,2860.412905 716.271413,2761.916487 722.273689,2661.603478 730.469225,2559.751742 734.695464,2472.186084 740.809162,2373.213882 747.091126,2287.385260 754.194340,2201.742154 758.009814,2117.681995 762.608203,2035.523042 766.315366,1952.890012 771.043258,1877.452781 779.270532,1786.827911 784.526413,1703.546385 788.670156,1626.132492 796.083497,1537.680428 801.163593,1455.293916 803.150720,1372.743042 805.809500,1250.850973"/>
    <poly id="596208371" type="leisure.park" color="207,245,201" fill="1" layer="-2.00" shape="1084.927348,1794.827133 1154.557319,1797.198629 1246.753527,1799.800921 1349.005317,1803.347933 1359.256058,1796.411228 1358.236768,1813.561661 1347.973638,1813.556398 1242.756713,1807.543365 1242.174495,1836.998709 1231.853511,1836.538992 1232.131897,1808.265198 1160.719961,1805.919469 1137.339281,1804.839327 1084.594218,1800.924131 1084.927348,1794.827133"/>
    <poly id="617548275" type="amenity.fountain" color="237,199,199" fill="1" layer="-1.00" shape="692.065127,1643.029051 690.632000,1642.560528 689.131629,1642.556324 687.689034,1643.017709 686.481669,1643.913278 685.604426,1645.133280 685.162616,1646.568074 685.218977,1648.196156 685.828643,1649.719156 686.920714,1650.937066 688.371521,1651.715769 689.994546,1651.953724 691.612901,1651.626986 693.007347,1650.777609 694.041432,1649.503846 694.545527,1648.091829 694.581694,1646.586476 694.148240,1645.153842 693.275070,1643.927089 692.065127,1643.029051"/>
    <poly id="617548276" type="amenity.fountain" color="237,199,199" fill="1" layer="-1.00" shape="685.900817,1683.565403 684.964011,1682.448717 684.446421,1681.092726 684.398789,1679.630806 684.819310,1678.240081 685.675264,1677.064148 686.861227,1676.223719 688.261694,1675.806190 689.719825,1675.865323 691.100180,1676.399737 692.236628,1677.352384 692.994742,1678.622252 693.282224,1680.064471 693.090232,1681.523952 692.420344,1682.845709 691.347180,1683.864429 690.028032,1684.482072 688.567648,1684.644346 687.143478,1684.319844 685.900817,1683.565403"/>
    <poly id="89819876" type="amenity.fountain" color="237,199,199" fill="1" layer="-1.00" shape="735.332194,1846.110995 737.111048,1844.346605 738.355928,1841.812843 738.605721,1838.770729 737.850956,1836.150171 736.516077,1834.221208 734.479561,1832.639386 732.133358,1831.796200 728.902881,1831.840798 725.972326,1833.128458 724.056344,1835.057525 723.025244,1837.062034 722.618908,1839.106120 722.724197,1841.044702 723.574872,1843.455877 725.055607,1845.386325 726.751700,1846.632534 728.827588,1847.417609 731.013635,1847.617018 733.059576,1847.250354 735.332194,1846.110995"/>
    <poly id="89819876#1" type="leisure.park" color="207,245,201" fill="1" layer="-2.00" shape="735.332194,1846.110995 737.111048,1844.346605 738.355928,1841.812843 738.605721,1838.770729 737.850956,1836.150171 736.516077,1834.221208 734.479561,1832.639386 732.133358,1831.796200 728.902881,1831.840798 725.972326,1833.128458 724.056344,1835.057525 723.025244,1837.062034 722.618908,1839.106120 722.724197,1841.044702 723.574872,1843.455877 725.055607,1845.386325 726.751700,1846.632534 728.827588,1847.417609 731.013635,1847.617018 733.059576,1847.250354 735.332194,1846.110995"/>
    <poly id="89819878" type="amenity.place_of_worship" color="237,199,199" fill="1" layer="-1.00" shape="772.683430,1865.778001 790.015583,1866.342085 807.900873,1862.726802 850.691038,1863.982166 853.957792,1794.951505 828.561740,1794.305182 828.362736,1813.833260 780.047966,1811.768818 777.437075,1815.429024 772.683430,1865.778001"/>
    <poly id="89819878#1" type="building.yes" color="255,230,230" fill="1" layer="-1.00" shape="772.683430,1865.778001 790.015583,1866.342085 807.900873,1862.726802 850.691038,1863.982166 853.957792,1794.951505 828.561740,1794.305182 828.362736,1813.833260 780.047966,1811.768818 777.437075,1815.429024 772.683430,1865.778001"/>
    <poly id="89819880" type="amenity.theatre" color="237,199,199" fill="1" layer="-1.00" shape="1041.170851,1852.517069 1040.638936,1860.737767 1118.484541,1864.621191 1120.678690,1825.240104 1042.147124,1822.191119 1041.914777,1827.602712 1032.395554,1827.195585 1031.328448,1852.128787 1041.170851,1852.517069"/>
    <poly id="89819880#1" type="building.yes" color="255,230,230" fill="1" layer="-1.00" shape="1041.170851,1852.517069 1040.638936,1860.737767 1118.484541,1864.621191 1120.678690,1825.240104 1042.147124,1822.191119 1041.914777,1827.602712 1032.395554,1827.195585 1031.328448,1852.128787 1041.170851,1852.517069"/>
    <poly id="89819890" type="amenity.fountain" color="237,199,199" fill="1" layer="-1.00" shape="979.789648,1839.269373 989.666022,1839.392256 989.799019,1829.418193 979.912333,1829.284134 979.789648,1839.269373"/>
    <poly id="89819890#1" type="leisure.park" color="207,245,201" fill="1" layer="-2.00" shape="979.789648,1839.269373 989.666022,1839.392256 989.799019,1829.418193 979.912333,1829.284134 979.789648,1839.269373"/>
    <poly id="89819892" type="amenity.fountain" color="237,199,199" fill="1" layer="-1.00" shape="884.198331,1835.515691 893.658421,1835.589987 893.741787,1826.390427 884.281692,1826.316131 884.198331,1835.515691"/>
    <poly id="89819892#1" type="leisure.park" color="207,245,201" fill="1" layer="-2.00" shape="884.198331,1835.515691 893.658421,1835.589987 893.741787,1826.390427 884.281692,1826.316131 884.198331,1835.515691"/>
    <poi id="1223706785" type="amenity.parking" color="184,184,179" layer="4.00" x="1114.93" y="1805.92"/>
    <poi id="1463120791" type="amenity.parking" color="184,184,179" layer="4.00" x="1007.40" y="1850.63"/>
    <poi id="1663173902" type="population.1495182" color="51,128,255" layer="4.00" x="814.65" y="1736.81"/>
    <poi id="1705340004" type="historic.monument" color="128,255,128" layer="4.00" x="940.56" y="1669.51"/>
    <poi id="1705345907" type="historic.monument" color="128,255,128" layer="4.00" x="509.56" y="1592.19"/>
    <poi id="1718850584" type="shop.toys" color="237,199,255" layer="4.00" x="677.42" y="1620.36"/>
    <poi id="1724419490" type="amenity.pub" color="237,199,199" layer="4.00" x="944.34" y="1934.80"/>
    <poi id="2296577378" type="shop.convenience" color="237,199,255" layer="4.00" x="779.66" y="1968.59"/>
    <poi id="2296577379" type="shop.books" color="237,199,255" layer="4.00" x="795.66" y="1974.04"/>
    <poi id="2296577531" type="amenity.fast_food" color="237,199,199" layer="4.00" x="713.01" y="1612.85"/>
    <poi id="2296577532" type="amenity.fast_food" color="237,199,199" layer="4.00" x="669.79" y="1666.64"/>
    <poi id="2296577533" type="amenity.restaurant" color="237,199,199" layer="4.00" x="635.29" y="1609.34"/>
    <poi id="2296578978" type="amenity.pharmacy" color="237,199,199" layer="4.00" x="683.35" y="1854.65"/>
    <poi id="2302708012" type="amenity.bus_station" color="237,199,199" layer="4.00" x="611.25" y="2014.11"/>
    <poi id="2325628063" type="historic.monument" color="128,255,128" layer="4.00" x="1163.47" y="1851.97"/>
    <poi id="2824920856" type="amenity.fast_food" color="237,199,199" layer="4.00" x="1250.36" y="1786.62"/>
    <poi id="2868571088" type="amenity.bank" color="237,199,199" layer="4.00" x="516.90" y="1875.15"/>
    <poi id="2873148401" type="shop.convenience" color="237,199,255" layer="4.00" x="879.75" y="1649.83"/>
    <poi id="3429598811" type="amenity.fast_food" color="237,199,199" layer="4.00" x="901.57" y="1638.11"/>
    <poi id="3802501806" type="amenity.kindergarten" color="237,199,199" layer="4.00" x="1097.74" y="1985.16"/>
    <poi id="3802567644" type="amenity.university" color="237,199,199" layer="4.00" x="701.83" y="1654.95"/>
    <poi id="3802568318" type="amenity.university" color="237,199,199" layer="4.00" x="1081.66" y="1784.60"/>
    <poi id="3802568319" type="amenity.university" color="237,199,199" layer="4.00" x="1024.94" y="2002.79"/>
    <poi id="3802568352" type="amenity.university" color="237,199,199" layer="4.00" x="465.13" y="1815.52"/>
    <poi id="3802568971" type="amenity.college" color="237,199,199" layer="4.00" x="701.83" y="1654.95"/>
    <poi id="3802568972" type="amenity.university" color="237,199,199" layer="4.00" x="701.83" y="1654.95"/>
    <poi id="3802568985" type="amenity.university" color="237,199,199" layer="4.00" x="726.66" y="1631.96"/>
    <poi id="3802571557" type="amenity.college" color="237,199,199" layer="4.00" x="1081.66" y="1784.60"/>
    <poi id="3802588084" type="amenity.university" color="237,199,199" layer="4.00" x="742.68" y="1634.22"/>
    <poi id="3917703807" type="amenity.waste_basket" color="237,199,199" layer="4.00" x="848.92" y="1866.08"/>
    <poi id="3917703808" type="amenity.waste_basket" color="237,199,199" layer="4.00" x="856.75" y="1906.17"/>
    <poi id="3917709457" type="tourism.museum" color="207,245,201" layer="3.00" x="1009.45" y="1789.52"/>
    <poi id="4198277690" type="shop.supermarket" color="237,199,255" layer="4.00" x="788.42" y="1619.64"/>
    <poi id="4211666291" type="shop.clothes" color="237,199,255" layer="4.00" x="664.88" y="1612.43"/>
    <poi id="4274955889" type="amenity.restaurant" color="237,199,199" layer="4.00" x="620.20" y="1773.57"/>
    <poi id="4316576306" type="amenity.bicycle_rental" color="237,199,199" layer="4.00" x="744.92" y="1634.50"/>
    <poi id="4316576309" type="amenity.bicycle_rental" color="237,199,199" layer="4.00" x="954.89" y="1659.08"/>
    <poi id="4316576316" type="amenity.bicycle_rental" color="237,199,199" layer="4.00" x="487.89" y="1773.78"/>
    <poi id="4316576321" type="amenity.bicycle_rental" color="237,199,199" layer="4.00" x="1001.71" y="1854.54"/>
    <poi id="4316576322" type="amenity.bicycle_rental" color="237,199,199" layer="4.00" x="707.30" y="1880.49"/>
    <poi id="4509375496" type="amenity.bicycle_parking" color="237,199,199" layer="4.00" x="534.61" y="1601.39"/>
    <poi id="4538872493" type="amenity.restaurant" color="237,199,199" layer="4.00" x="594.20" y="1626.10"/>
    <poi id="4646497991" type="tourism.information" color="207,245,201" layer="3.00" x="1236.53" y="1855.46"/>
    <poi id="4675906189" type="amenity.bus_station" color="237,199,199" layer="4.00" x="794.79" y="1455.68"/>
    <poi id="4738630880" type="historic.memorial" color="128,255,128" layer="4.00" x="434.76" y="1614.70"/>
    <poi id="4738630914" type="tourism.museum" color="207,245,201" layer="3.00" x="996.47" y="1790.94"/>
    <poi id="4742174547" type="tourism.museum" color="207,245,201" layer="3.00" x="839.27" y="1818.44"/>
    <poi id="4995971021" type="amenity.bank" color="237,199,199" layer="4.00" x="887.01" y="1613.04"/>
    <poi id="5063082645" type="amenity.pharmacy" color="237,199,199" layer="4.00" x="546.17" y="2009.69"/>
    <poi id="5286514756" type="historic.monument" color="128,255,128" layer="4.00" x="937.98" y="1862.60"/>
    <poi id="5286514757" type="man_made.flagpole" color="255,230,230" layer="4.00" x="938.46" y="1832.13"/>
    <poi id="5286542857" type="historic.memorial" color="128,255,128" layer="4.00" x="1133.64" y="1807.87"/>
    <poi id="5286542858" type="historic.memorial" color="128,255,128" layer="4.00" x="1144.66" y="1788.52"/>
    <poi id="5286549381" type="historic.memorial" color="128,255,128" layer="4.00" x="1123.97" y="1840.88"/>
    <poi id="5319210129" type="amenity.restaurant" color="237,199,199" layer="4.00" x="862.98" y="1582.56"/>
    <poi id="5711675737" type="amenity.place_of_worship" color="237,199,199" layer="4.00" x="825.43" y="1960.52"/>
    <poi id="5788260548" type="shop.clothes" color="237,199,255" layer="4.00" x="555.82" y="1599.50"/>
    <poi id="5846283988" type="shop.yes" color="237,199,255" layer="4.00" x="467.60" y="1934.56"/>
</additional>
