<?xml version="1.0" encoding="UTF-8"?>

<!-- generated on 09/25/18 12:28:53 by Eclipse SUMO polyconvert Version 1.0.1
<configuration xmlns:xsi="http://www.w3.org/2001/XMLSchema-instance" xsi:noNamespaceSchemaLocation="http://sumo.dlr.de/xsd/polyconvertConfiguration.xsd">

    <input>
        <net-file value="D:\Sumo\2018-09-25-12-28-44\osm.net.xml"/>
        <osm-files value="D:\Sumo\2018-09-25-12-28-44\osm_bbox.osm.xml"/>
        <osm.keep-full-type value="true"/>
        <type-file value="C:\Program%20Files%20(x86)\Eclipse\Sumo\data\typemap\osmPolyconvert.typ.xml"/>
    </input>

    <output>
        <output-file value="D:\Sumo\2018-09-25-12-28-44\osm.poly.xml"/>
    </output>

    <processing>
        <poi-layer-offset value="5"/>
    </processing>

    <report>
        <verbose value="true"/>
    </report>

</configuration>
-->

<additional xmlns:xsi="http://www.w3.org/2001/XMLSchema-instance" xsi:noNamespaceSchemaLocation="http://sumo.dlr.de/xsd/additional_file.xsd">
    <location netOffset="-668411.30,-2281514.08" convBoundary="0.00,-0.00,11535.27,12717.13" origBoundary="-103.383128,20.624681,-103.272755,20.739462" projParameter="+proj=utm +zone=13 +ellps=WGS84 +datum=WGS84 +units=m +no_defs"/>

    <poly id="105867464" type="building" color="237,199,199" fill="1" layer="-1.00" shape="4214.092333,5776.085063 4210.561525,5775.949348 4210.448434,5778.860000 4168.203318,5777.277034 4168.316741,5774.333171 4165.056698,5774.211302 4164.714395,5783.242158 4168.578588,5783.381269 4168.692577,5780.382054 4210.302391,5781.936389 4210.187943,5784.979885 4213.750004,5785.115920 4214.092333,5776.085063">
        <param key="building" value="yes"/>
        <param key="building:levels" value="4"/>
        <param key="source" value="Regione Emilia Romagna"/>
    </poly>
    <poly id="105867466" type="building" color="237,199,199" fill="1" layer="-1.00" shape="4401.144576,5757.536915 4400.656397,5763.499472 4394.477505,5763.513781 4390.906502,5767.308007 4394.466198,5770.732297 4399.268501,5769.818189 4400.025661,5777.288138 4403.717508,5781.034857 4407.610802,5777.310358 4407.742947,5771.521303 4414.014130,5771.651874 4417.852845,5768.170393 4414.089994,5764.234729 4408.080626,5763.973979 4408.270751,5757.609798 4405.035383,5754.055963 4401.144576,5757.536915">        
        <param key="building" value="yes"/>
        <param key="building:levels" value="4"/>
        <param key="source" value="Regione Emilia Romagna"/>
    </poly>
    <poly id="105867466#1" type="leisure.park" color="207,245,201" fill="1" layer="-2.00" shape="4401.144576,5757.536915 4400.656397,5763.499472 4394.477505,5763.513781 4390.906502,5767.308007 4394.466198,5770.732297 4399.268501,5769.818189 4400.025661,5777.288138 4403.717508,5781.034857 4407.610802,5777.310358 4407.742947,5771.521303 4414.014130,5771.651874 4417.852845,5768.170393 4414.089994,5764.234729 4408.080626,5763.973979 4408.270751,5757.609798 4405.035383,5754.055963 4401.144576,5757.536915"/>
    <poly id="105867467" type="building" color="237,199,199" fill="1" layer="-1.00" shape="4342.269235,5770.287133 4347.979296,5770.268012 4347.944932,5760.380794 4342.234868,5760.399915 4342.269235,5770.287133">
        <param key="building" value="yes"/>
        <param key="building:levels" value="4"/>
        <param key="source" value="Regione Emilia Romagna"/>
    </poly>
    <poly id="105867467#1" type="leisure.park" color="207,245,201" fill="1" layer="-2.00" shape="4342.269235,5770.287133 4347.979296,5770.268012 4347.944932,5760.380794 4342.234868,5760.399915 4342.269235,5770.287133"/>
    <poly id="105867468" type="building" color="255,230,230" fill="1" layer="-1.00" shape="4622.449540,5660.323990 4594.869636,5659.244446 4591.989989,5731.877427 4591.679630,5739.801466 4619.259402,5740.881015 4621.885547,5674.700137 4622.449540,5660.323990">
        <param key="building" value="yes"/>
        <param key="building:levels" value="4"/>
        <param key="source" value="Regione Emilia Romagna"/>
    </poly>
    <poly id="105867469" type="building" color="255,230,230" fill="1" layer="-1.00" shape="4638.033033,5652.589568 4672.608033,5654.338693 4671.328036,5679.612970 4636.742556,5677.874807 4636.871342,5675.473603 4638.033033,5652.589568">
        <param key="building" value="yes"/>
        <param key="building:levels" value="4"/>
        <param key="source" value="Regione Emilia Romagna"/>
    </poly>
    <poly id="105867470" type="leisure.park" color="207,245,201" fill="1" layer="-2.00" shape="4635.313888,5821.446910 4626.541633,5821.357072 4616.308212,5820.488339 4617.772110,5768.090686 4591.345310,5767.366159 4590.639959,5775.197582 4502.257907,5771.525022 4502.511723,5761.995034 4463.726228,5760.369235 4460.917153,5807.826269 4391.706545,5804.206500 4392.406140,5795.910013 4300.933156,5791.896887 4301.279185,5772.314910 4302.423638,5745.976398 4312.686768,5745.981661 4313.706058,5728.831228 4361.543276,5730.737443 4400.384610,5711.626612 4400.259451,5701.450604 4411.417464,5701.575792 4411.520507,5696.594661 4428.519749,5697.122820 4426.842190,5738.889589 4504.083847,5741.750227 4504.687939,5728.537005 4591.989989,5731.877427 4591.679630,5739.801466 4619.259402,5740.881015 4621.885547,5674.700137 4636.871342,5675.473603 4636.742556,5677.874807 4671.328036,5679.612970 4672.608033,5654.338693 4680.686762,5653.989654 4687.947769,5636.836722 4784.202105,5615.646699 4788.489470,5630.415792 4788.455586,5642.870929 4793.696680,5663.196643 4805.499501,5686.822512 4677.419268,5683.074324 4672.836394,5829.382027 4634.993100,5828.352263 4635.313888,5821.446910"/>
    <poly id="106328327" type="building" color="207,245,201" fill="1" layer="-2.00" shape="3835.879862,5860.642290 3847.646893,5861.315826 3846.988102,5872.790249 3835.221079,5872.116712 3835.879862,5860.642290">
        <param key="building" value="yes"/>
        <param key="building:levels" value="4"/>
        <param key="source" value="Regione Emilia Romagna"/>
    </poly>
    <poly id="106328328" type="building" color="207,245,201" fill="1" layer="-2.00" shape="3825.097659,5846.150507 3846.947136,5847.170395 3847.982214,5825.359034 3826.132822,5824.328076 3825.097659,5846.150507">
        <param key="building" value="yes"/>
        <param key="building:levels" value="4"/>
        <param key="source" value="Regione Emilia Romagna"/>
    </poly>
    <poly id="106328330" type="building" color="207,245,201" fill="1" layer="-2.00" shape="3858.022503,5871.740242 3869.810251,5872.425077 3870.465444,5861.304906 3858.677689,5860.620071 3858.022503,5871.740242">
        <param key="building" value="yes"/>
        <param key="building:levels" value="4"/>
        <param key="source" value="Regione Emilia Romagna"/>
    </poly>
    <poly id="106328331" type="building" color="207,245,201" fill="1" layer="-2.00" shape="3863.404543,5830.310227 3875.788760,5830.746502 3876.053386,5823.187369 3863.679582,5822.751201 3863.404543,5830.310227">
        <param key="building" value="yes"/>
        <param key="building:levels" value="4"/>
        <param key="source" value="Regione Emilia Romagna"/>
    </poly>
    <poly id="106328332" type="building" color="207,245,201" fill="1" layer="-2.00" shape="3858.951088,5848.112070 3866.970361,5848.470621 3866.568528,5857.224076 3858.549372,5856.854454 3858.951088,5848.112070">
        <param key="building" value="yes"/>
        <param key="building:levels" value="4"/>
        <param key="source" value="Regione Emilia Romagna"/>
    </poly>
    <poly id="106463605" type="building" color="237,199,199" fill="1" layer="-1.00" shape="3126.069558,5485.173543 3125.552408,5497.114389 3133.540803,5497.450121 3133.597199,5496.000333 3137.513314,5496.161872 3136.789646,5513.049561 3137.591644,5513.079845 3137.277511,5520.417029 3104.292879,5519.030433 3104.705993,5509.125678 3099.300600,5508.893674 3099.805740,5497.107707 3112.970438,5497.662037 3113.519316,5484.647583 3126.069558,5485.173543">
        <param key="building" value="yes"/>
        <param key="building:levels" value="4"/>
        <param key="source" value="Regione Emilia Romagna"/>
    </poly>
    <poly id="106463605#1" type="building" color="255,230,230" fill="1" layer="-1.00" shape="3126.069558,5485.173543 3125.552408,5497.114389 3133.540803,5497.450121 3133.597199,5496.000333 3137.513314,5496.161872 3136.789646,5513.049561 3137.591644,5513.079845 3137.277511,5520.417029 3104.292879,5519.030433 3104.705993,5509.125678 3099.300600,5508.893674 3099.805740,5497.107707 3112.970438,5497.662037 3113.519316,5484.647583 3126.069558,5485.173543">
        <param key="building" value="yes"/>
        <param key="building:levels" value="4"/>
        <param key="source" value="Regione Emilia Romagna"/>
    </poly>
    <poly id="124945315" type="building" color="255,230,230" fill="1" layer="-1.00" shape="5291.006049,4686.408764 5130.268111,4740.857533 5183.708981,4906.649143 5347.235833,4850.402847 5291.006049,4686.408764">
        <param key="building" value="yes"/>
        <param key="building:levels" value="4"/>
        <param key="source" value="Regione Emilia Romagna"/>
    </poly>
    <poly id="124947514" type="leisure.park" color="207,245,201" fill="1" layer="-2.00" shape="4118.504004,5764.889770 4117.919356,5784.391796 4136.897756,5784.962020 4137.047338,5790.720732 4159.236393,5791.146625 4159.285123,5786.375302 4218.680415,5787.978456 4218.623524,5793.546845 4275.599707,5795.324773 4275.456631,5789.953626 4300.933156,5791.896887 4301.279185,5772.314910 4298.246421,5772.383554 4276.439755,5772.260320 4276.684430,5767.690284 4219.910062,5765.526919 4219.650911,5770.495381 4196.624495,5769.418709 4189.667626,5769.092999 4186.303511,5768.958992 4159.880255,5767.891960 4160.133039,5762.524859 4136.931329,5762.287914 4136.090566,5766.054713 4118.504004,5764.889770"/>
    <poly id="125568173" type="leisure.park" color="207,245,201" fill="1" layer="-2.00" shape="2790.577954,5512.173597 2947.633925,5517.086871 2948.848252,5442.544102 2797.187264,5436.766600 2794.795133,5438.392009 2793.104172,5440.744165 2792.599687,5443.230126 2790.577954,5512.173597"/>
    <poly id="125568174" type="leisure.park" color="207,245,201" fill="1" layer="-2.00" shape="2946.975831,5605.618518 2947.153165,5530.589155 2799.275419,5525.824218 2792.186111,5530.335968 2790.672429,5596.439234 2797.061308,5602.438251 2946.975831,5605.618518"/>
    <poly id="125568386" type="leisure.park" color="207,245,201" fill="1" layer="-2.00" shape="3144.063501,5521.161276 3195.953655,5522.108850 3196.652586,5484.063358 3144.762428,5483.104720 3144.063501,5521.161276"/>
    <poly id="125569606" type="leisure.park" color="207,245,201" fill="1" layer="-2.00" shape="3376.218481,4630.540075 3436.309257,4612.285016 3420.171588,4579.172338 3359.507937,4596.369854 3376.218481,4630.540075"/>
    <poly id="125569607" type="building" color="237,199,199" fill="1" layer="-1.00" shape="3439.632288,4581.628716 3482.474612,4569.852433 3484.363663,4575.706298 3518.269070,4565.632816 3508.433031,4532.783416 3430.347670,4556.025709 3439.632288,4581.628716">
        <param key="building" value="yes"/>
        <param key="building:levels" value="4"/>
        <param key="source" value="Regione Emilia Romagna"/>
    </poly>
    <poly id="125569607#1" type="building" color="255,230,230" fill="1" layer="-1.00" shape="3439.632288,4581.628716 3482.474612,4569.852433 3484.363663,4575.706298 3518.269070,4565.632816 3508.433031,4532.783416 3430.347670,4556.025709 3439.632288,4581.628716">
        <param key="building" value="yes"/>
        <param key="building:levels" value="4"/>
        <param key="source" value="Regione Emilia Romagna"/>
    </poly>
    <poly id="125569608" type="building" color="255,230,230" fill="1" layer="-1.00" shape="3370.185632,4578.199375 3413.278385,4564.332959 3398.370535,4514.780630 3393.189272,4516.045482 3390.553326,4505.755460 3359.159690,4515.777219 3362.196905,4524.521308 3359.530475,4525.435291 3372.074896,4568.652836 3367.756747,4570.092536 3370.185632,4578.199375">
        <param key="building" value="yes"/>
        <param key="building:levels" value="4"/>
        <param key="source" value="Regione Emilia Romagna"/>
    </poly>
    <poly id="125570049" type="leisure.park" color="207,245,201" fill="1" layer="-2.00" shape="3447.088465,3775.171388 3464.344833,3761.861720 3451.495214,3727.088587 3469.253203,3719.795813 3454.510965,3685.656664 3469.318161,3682.640697 3488.502930,3677.488156 3514.232341,3675.369308 3539.349612,3675.037851 3559.655847,3676.428946 3581.728429,3681.403035 3607.965370,3688.810941 3623.446645,3694.315911 3636.522058,3702.763574 3651.403313,3708.860326 3671.163910,3705.496353 3917.923112,3662.837121 3916.160546,3777.530679 3809.161617,3890.056200 3697.205752,4024.929417 3664.016689,3997.256238 3641.318799,4024.083947 3636.239209,4035.823373 3621.725290,4053.057910 3637.511205,4066.482117 3631.871453,4073.875832 3623.096176,4067.852255 3607.483821,4069.121655 3607.324780,4072.463618 3584.363335,4075.020073 3569.722412,4043.273231 3575.083154,4040.770243 3558.318355,4007.806099 3578.669805,3986.268723 3579.096867,3970.916957 3550.137139,3926.956644 3537.795352,3933.485100 3523.633396,3884.327795 3512.024424,3888.472287 3494.292544,3842.976593 3485.067193,3846.359261 3484.172553,3844.158021 3480.692252,3843.115146 3476.177067,3844.442116 3447.088465,3775.171388"/>
    <poly id="125570050" type="building" color="207,245,201" fill="1" layer="-2.00" shape="3625.871481,4054.196164 3636.221393,4063.180770 3661.606985,4032.328251 3677.542425,4046.418304 3692.946287,4027.753577 3663.301859,4004.013627 3649.662836,4020.260615 3651.736077,4022.352072 3638.881912,4038.274909 3625.871481,4054.196164">
        <param key="building" value="yes"/>
        <param key="building:levels" value="4"/>
        <param key="source" value="Regione Emilia Romagna"/>
    </poly>
    <poly id="132668469" type="landuse.cemetery" color="194,194,130" fill="1" layer="-3.00" shape="3899.154696,6992.540450 4044.509866,7004.387167 4050.495466,6860.020348 3908.940100,6855.497507 3899.154696,6992.540450"/>
    <poly id="144358065" type="building" color="255,230,230" fill="1" layer="-1.00" shape="3819.274049,5715.226118 3892.982986,5719.155090 3896.800616,5648.247884 3823.091368,5644.318918 3819.274049,5715.226118">
        <param key="building" value="yes"/>
        <param key="building:levels" value="4"/>
        <param key="source" value="Regione Emilia Romagna"/>
    </poly>
    <poly id="144358065#1" type="building" color="207,245,201" fill="1" layer="-2.00" shape="3819.274049,5715.226118 3892.982986,5719.155090 3896.800616,5648.247884 3823.091368,5644.318918 3819.274049,5715.226118">
        <param key="building" value="yes"/>
        <param key="building:levels" value="4"/>
        <param key="source" value="Regione Emilia Romagna"/>
    </poly>
    <poly id="144358066" type="leisure.park" color="207,245,201" fill="1" layer="-2.00" shape="3817.228428,5752.361190 3821.737886,5752.573227 3820.350568,5790.545372 3821.631381,5794.710237 3823.838486,5797.954538 3826.420275,5800.217297 3829.742292,5801.413667 3962.007196,5805.419617 3966.024777,5803.799878 3968.567417,5799.685077 3973.300360,5736.116528 3971.843651,5733.876295 3968.580863,5733.001576 3826.323789,5727.908403 3821.982974,5728.528447 3819.115061,5730.824228 3817.906003,5734.952642 3817.228428,5752.361190"/>
    <poly id="144358067" type="building" color="237,199,199" fill="1" layer="-1.00" shape="3647.395985,5873.690511 3703.730463,5877.054290 3709.415629,5820.149407 3651.493591,5818.164465 3650.092990,5847.246059 3647.395985,5873.690511">
        <param key="building" value="yes"/>
        <param key="building:levels" value="4"/>
        <param key="source" value="Regione Emilia Romagna"/>
    </poly>
    <poly id="144358067#1" type="building" color="255,230,230" fill="1" layer="-1.00" shape="3647.395985,5873.690511 3703.730463,5877.054290 3709.415629,5820.149407 3651.493591,5818.164465 3650.092990,5847.246059 3647.395985,5873.690511">
        <param key="building" value="yes"/>
        <param key="building:levels" value="4"/>
        <param key="source" value="Regione Emilia Romagna"/>
    </poly>
    <poly id="144358068" type="building" color="237,199,199" fill="1" layer="-1.00" shape="3476.598261,5868.929579 3551.352426,5871.439524 3554.456932,5816.202304 3511.787198,5814.384152 3478.781938,5813.029781 3476.598261,5868.929579">
        <param key="building" value="yes"/>
        <param key="building:levels" value="4"/>
        <param key="source" value="Regione Emilia Romagna"/>
    </poly>
    <poly id="144358069" type="building" color="207,245,201" fill="1" layer="-2.00" shape="3810.385944,5881.883252 3881.168838,5884.542400 3885.316332,5813.981766 3814.337074,5810.113831 3810.385944,5881.883252">
        <param key="building" value="yes"/>
        <param key="building:levels" value="4"/>
        <param key="source" value="Regione Emilia Romagna"/>
    </poly>
    <poly id="144358070" type="leisure.park" color="207,245,201" fill="1" layer="-2.00" shape="3723.779716,5878.863902 3800.932577,5881.155821 3803.410509,5818.981440 3726.883295,5817.636983 3723.779716,5878.863902"/>
    <poly id="144358072" type="leisure.park" color="207,245,201" fill="1" layer="-2.00" shape="3652.845586,5795.902410 3711.237923,5798.777860 3714.879856,5725.610299 3656.487265,5722.734854 3652.845586,5795.902410"/>
    <poly id="144358074" type="building" color="237,199,199" fill="1" layer="-1.00" shape="3732.721727,5743.650362 3781.664533,5745.433341 3781.896974,5726.713822 3767.776763,5725.872432 3767.791653,5724.411147 3753.429901,5723.755523 3753.351374,5725.326874 3733.840126,5724.895587 3732.721727,5743.650362">
        <param key="building" value="yes"/>
        <param key="building:levels" value="4"/>
        <param key="source" value="Regione Emilia Romagna"/>
    </poly>
    <poly id="144358074#1" type="building" color="255,230,230" fill="1" layer="-1.00" shape="3732.721727,5743.650362 3781.664533,5745.433341 3781.896974,5726.713822 3767.776763,5725.872432 3767.791653,5724.411147 3753.429901,5723.755523 3753.351374,5725.326874 3733.840126,5724.895587 3732.721727,5743.650362">
        <param key="building" value="yes"/>
        <param key="building:levels" value="4"/>
        <param key="source" value="Regione Emilia Romagna"/>
    </poly>
    <poly id="144358075" type="building" color="237,199,199" fill="1" layer="-1.00" shape="3975.183157,5883.486328 4032.364220,5886.594131 4036.141403,5817.668285 3978.959993,5814.571557 3975.183157,5883.486328">
        <param key="building" value="yes"/>
        <param key="building:levels" value="4"/>
        <param key="source" value="Regione Emilia Romagna"/>
    </poly>
    <poly id="144358075#1" type="building" color="255,230,230" fill="1" layer="-1.00" shape="3975.183157,5883.486328 4032.364220,5886.594131 4036.141403,5817.668285 3978.959993,5814.571557 3975.183157,5883.486328">
        <param key="building" value="yes"/>
        <param key="building:levels" value="4"/>
        <param key="source" value="Regione Emilia Romagna"/>
    </poly>
    <poly id="144358077" type="leisure.park" color="207,245,201" fill="1" layer="-2.00" shape="3804.377641,5716.934300 3808.219722,5646.658430 3743.529451,5643.153878 3739.687641,5713.429744 3804.377641,5716.934300"/>
    <poly id="144358078" type="building" color="255,230,230" fill="1" layer="-1.00" shape="3894.781090,5851.400294 3921.462285,5852.702054 3920.910338,5863.911852 3908.392512,5863.297036 3907.918212,5873.024044 3893.036345,5872.296557 3892.443904,5884.413804 3964.176701,5887.924423 3967.748204,5815.641822 3896.723206,5812.171646 3894.781090,5851.400294">
        <param key="building" value="yes"/>
        <param key="building:levels" value="4"/>
        <param key="source" value="Regione Emilia Romagna"/>
    </poly>
    <poly id="146901368" type="building" color="237,199,199" fill="1" layer="-1.00" shape="3991.411707,4206.498092 3986.833597,4207.868566 3980.968977,4188.245469 3989.602659,4185.654192 3982.129583,4162.305751 3975.135720,4159.411224 3972.106291,4149.925298 3969.252440,4150.815139 3963.170096,4131.079118 3967.989561,4129.545025 3963.537256,4115.505290 3983.371771,4108.942810 3987.554377,4112.639038 3989.792065,4109.838624 3996.990718,4116.156331 3999.208620,4114.274649 3999.971527,4115.079573 4100.114444,4084.215007 4101.867226,4090.133990 4105.665349,4102.916017 4108.901891,4113.544449 4006.325090,4145.004138 4003.444392,4155.680889 4006.429382,4164.413508 4015.029310,4171.265873 4084.366122,4149.885411 4087.804315,4150.961203 4110.540064,4143.974536 4118.631927,4172.023670 4023.860889,4200.363213 4019.758237,4199.048157 4015.407340,4214.924583 3996.193765,4220.895488 3991.411707,4206.498092">
        <param key="building" value="yes"/>
        <param key="building:levels" value="4"/>
        <param key="source" value="Regione Emilia Romagna"/>
    </poly>
    <poly id="146901368#1" type="building" color="255,230,230" fill="1" layer="-1.00" shape="3991.411707,4206.498092 3986.833597,4207.868566 3980.968977,4188.245469 3989.602659,4185.654192 3982.129583,4162.305751 3975.135720,4159.411224 3972.106291,4149.925298 3969.252440,4150.815139 3963.170096,4131.079118 3967.989561,4129.545025 3963.537256,4115.505290 3983.371771,4108.942810 3987.554377,4112.639038 3989.792065,4109.838624 3996.990718,4116.156331 3999.208620,4114.274649 3999.971527,4115.079573 4100.114444,4084.215007 4101.867226,4090.133990 4105.665349,4102.916017 4108.901891,4113.544449 4006.325090,4145.004138 4003.444392,4155.680889 4006.429382,4164.413508 4015.029310,4171.265873 4084.366122,4149.885411 4087.804315,4150.961203 4110.540064,4143.974536 4118.631927,4172.023670 4023.860889,4200.363213 4019.758237,4199.048157 4015.407340,4214.924583 3996.193765,4220.895488 3991.411707,4206.498092">
        <param key="building" value="yes"/>
        <param key="building:levels" value="4"/>
        <param key="source" value="Regione Emilia Romagna"/>
    </poly>
    <poly id="146901375" type="building" color="255,230,230" fill="1" layer="-1.00" shape="3571.027496,4366.783457 3615.608011,4460.757618 3704.897747,4418.908324 3660.215750,4324.700367 3652.247960,4328.427868 3644.137808,4311.328501 3592.435679,4335.569343 3600.658114,4352.902326 3571.027496,4366.783457">
        <param key="building" value="yes"/>
        <param key="building:levels" value="4"/>
        <param key="source" value="Regione Emilia Romagna"/>
    </poly>
    <poly id="146901375#1" type="shop.supermarket" color="237,199,255" fill="1" layer="-1.00" shape="3571.027496,4366.783457 3615.608011,4460.757618 3704.897747,4418.908324 3660.215750,4324.700367 3652.247960,4328.427868 3644.137808,4311.328501 3592.435679,4335.569343 3600.658114,4352.902326 3571.027496,4366.783457"/>
    <poly id="147727944" type="building" color="255,230,230" fill="1" layer="-1.00" shape="3673.910649,6684.006062 3764.355379,6689.256784 3769.498410,6611.963721 3679.444475,6606.152342 3673.910649,6684.006062">
        <param key="building" value="yes"/>
        <param key="building:levels" value="4"/>
        <param key="source" value="Regione Emilia Romagna"/>
    </poly>
    <poly id="147727950" type="leisure.park" color="207,245,201" fill="1" layer="-2.00" shape="3712.024442,6125.560830 3745.169999,6127.404283 3750.249183,6060.451377 3716.790949,6058.604739 3712.024442,6125.560830"/>
    <poly id="147727955" type="leisure.park" color="207,245,201" fill="1" layer="-2.00" shape="3602.764227,6581.312894 3656.489291,6587.971584 3662.868863,6500.726789 3608.396728,6501.921251 3602.764227,6581.312894"/>
    <poly id="147727963" type="building" color="237,199,199" fill="1" layer="-1.00" shape="3592.060908,6646.071748 3606.742339,6646.974128 3606.722383,6648.933579 3640.933847,6651.385629 3640.427875,6656.052644 3642.695909,6656.374679 3641.922971,6672.929757 3650.097888,6673.311966 3654.623428,6600.330504 3652.221829,6598.800316 3598.950541,6594.648414 3596.334383,6598.840009 3592.060908,6646.071748">
        <param key="building" value="yes"/>
        <param key="building:levels" value="4"/>
        <param key="source" value="Regione Emilia Romagna"/>
    </poly>
    <poly id="149816835" type="leisure.park" color="207,245,201" fill="1" layer="-2.00" shape="4367.542820,4811.575226 4426.176787,4790.142300 4398.279792,4695.583197 4341.401343,4713.447012 4367.542820,4811.575226"/>
    <poly id="155294711" type="landuse.grass" color="194,194,130" fill="1" layer="-3.00" shape="3927.399077,6697.540428 3931.982165,6618.016267 4107.666807,6632.220993 4102.553472,6709.514384 3927.399077,6697.540428"/>
    <poly id="155294711#1" type="leisure.park" color="207,245,201" fill="1" layer="-2.00" shape="3927.399077,6697.540428 3931.982165,6618.016267 4107.666807,6632.220993 4102.553472,6709.514384 3927.399077,6697.540428"/>
    <poly id="158307221" type="building" color="207,245,201" fill="1" layer="-2.00" shape="4279.897597,5615.390150 4150.741657,5649.610279 4110.180846,5648.354688 4110.124939,5655.871669 4147.806966,5657.418938 4190.545634,5656.615423 4237.935527,5651.331290 4284.415858,5643.292255 4279.897597,5615.390150">
        <param key="building" value="yes"/>
        <param key="building:levels" value="4"/>
        <param key="source" value="Regione Emilia Romagna"/>
    </poly>
    <poly id="158307526" type="building" color="255,230,230" fill="1" layer="-1.00" shape="3885.106555,5626.096374 3887.178696,5626.228217 3887.981775,5607.758083 3879.204210,5607.159299 3879.746425,5593.834751 3895.629388,5594.505984 3896.260900,5582.643783 3901.490972,5582.697113 3898.648133,5632.600560 3894.801571,5635.838499 3884.501349,5635.379185 3885.106555,5626.096374">
        <param key="building" value="yes"/>
        <param key="building:levels" value="4"/>
        <param key="source" value="Regione Emilia Romagna"/>
    </poly>
    <poly id="158307961" type="building" color="255,230,230" fill="1" layer="-1.00" shape="3668.196913,5542.831813 3671.790577,5547.031284 3685.758830,5547.461389 3687.522565,5538.998597 3692.695772,5538.497707 3692.735345,5534.612021 3669.132797,5533.807016 3668.196913,5542.831813">
        <param key="building" value="yes"/>
        <param key="building:levels" value="4"/>
        <param key="source" value="Regione Emilia Romagna"/>
    </poly>
    <poly id="158308187" type="building" color="237,199,199" fill="1" layer="-1.00" shape="3443.898517,5537.371780 3447.804242,5483.227736 3460.234487,5484.284154 3459.867563,5478.357187 3475.504913,5479.623377 3475.735318,5484.630025 3488.455420,5484.847981 3487.537514,5533.088110 3481.339712,5538.029371 3443.898517,5537.371780">
        <param key="building" value="yes"/>
        <param key="building:levels" value="4"/>
        <param key="source" value="Regione Emilia Romagna"/>
    </poly>
    <poly id="158308187#1" type="building" color="255,230,230" fill="1" layer="-1.00" shape="3443.898517,5537.371780 3447.804242,5483.227736 3460.234487,5484.284154 3459.867563,5478.357187 3475.504913,5479.623377 3475.735318,5484.630025 3488.455420,5484.847981 3487.537514,5533.088110 3481.339712,5538.029371 3443.898517,5537.371780">
        <param key="building" value="yes"/>
        <param key="building:levels" value="4"/>
        <param key="source" value="Regione Emilia Romagna"/>
    </poly>
    <poly id="158308793" type="historic.building" color="128,255,128" fill="1" layer="-1.00" shape="3158.478703,5546.329106 3097.551621,5543.651346 3099.304821,5574.182056 3112.213268,5574.313074 3109.575176,5610.434584 3154.927564,5610.795338 3158.478703,5546.329106">
        <param key="building" value="yes"/>
        <param key="building:levels" value="4"/>
        <param key="source" value="Regione Emilia Romagna"/>
    </poly>
    <poly id="158309223" type="building" color="237,199,199" fill="1" layer="-1.00" shape="3703.902436,6215.068577 3730.035173,6215.943777 3732.653579,6171.662349 3726.570425,6171.500721 3727.907320,6142.551323 3715.455599,6141.605162 3713.310328,6171.155255 3707.029230,6170.991617 3703.902436,6215.068577">
        <param key="building" value="yes"/>
        <param key="building:levels" value="4"/>
        <param key="source" value="Regione Emilia Romagna"/>
    </poly>
    <poly id="158309223#1" type="building" color="255,230,230" fill="1" layer="-1.00" shape="3703.902436,6215.068577 3730.035173,6215.943777 3732.653579,6171.662349 3726.570425,6171.500721 3727.907320,6142.551323 3715.455599,6141.605162 3713.310328,6171.155255 3707.029230,6170.991617 3703.902436,6215.068577">
        <param key="building" value="yes"/>
        <param key="building:levels" value="4"/>
        <param key="source" value="Regione Emilia Romagna"/>
    </poly>
    <poly id="158393761" type="building" color="237,199,199" fill="1" layer="-1.00" shape="4450.614064,5672.194327 4454.279089,5674.490411 4600.398053,5639.316934 4612.060101,5646.189975 4686.958483,5627.626142 4682.826003,5608.917202 4679.840786,5607.391966 4670.488910,5566.220784 4672.770705,5564.195921 4663.582376,5526.381097 4584.526720,5543.872855 4577.060860,5539.312458 4572.655014,5547.294216 4549.998436,5552.808432 4540.881461,5548.718300 4537.414922,5549.424614 4530.742873,5550.784558 4525.606855,5557.828845 4450.867628,5576.107171 4442.654564,5571.251332 4436.805710,5572.608661 4430.052386,5583.954324 4444.674081,5648.850149 4442.389269,5652.192521 4442.987312,5654.844732 4443.644694,5657.807553 4447.747523,5660.085971 4450.614064,5672.194327">
        <param key="building" value="yes"/>
        <param key="building:levels" value="4"/>
        <param key="source" value="Regione Emilia Romagna"/>
    </poly>