<?xml version="1.0" encoding="UTF-8"?>
<!-- generated on 2018-09-25 12:28:57.024000 by $Id$ via randomTrips.py
  options: 
-->
<routes xmlns:xsi="http://www.w3.org/2001/XMLSchema-instance" xsi:noNamespaceSchemaLocation="http://sumo.dlr.de/xsd/routes_file.xsd">
    <vType id="bike_bicycle" vClass="bicycle">
    </vType>
    <trip id="bike0" depart="0.00" departLane="best" from="284769925#7" to="-123153074#11" type="bike_bicycle"/>
    <trip id="bike1" depart="1.21" departLane="best" from="123151902#0" to="120209283#14" type="bike_bicycle"/>
    <trip id="bike2" depart="2.42" departLane="best" from="317256466#4" to="301319790#28" type="bike_bicycle"/>
    <trip id="bike3" depart="3.64" departLane="best" from="431593427#13" to="-132740675" type="bike_bicycle"/>
    <trip id="bike4" depart="4.85" departLane="best" from="154966413#11" to="-123153076#3" type="bike_bicycle"/>
    <trip id="bike5" depart="6.06" departLane="best" from="119417249#0" to="217101882#15" type="bike_bicycle"/>
    <trip id="bike6" depart="7.27" departLane="best" from="-123153074#2" to="113540625#1" type="bike_bicycle"/>
    <trip id="bike7" depart="8.48" departLane="best" from="298742258#12" to="217101891#11" type="bike_bicycle"/>
    <trip id="bike8" depart="9.69" departLane="best" from="120209283#11" to="217198996#3" type="bike_bicycle"/>
    <trip id="bike9" depart="10.91" departLane="best" from="406494986#1" to="-113540626" type="bike_bicycle"/>
    <trip id="bike10" depart="12.12" departLane="best" from="406494982#3" to="30756258#1" type="bike_bicycle"/>
    <trip id="bike11" depart="13.33" departLane="best" from="125570051" to="-431593445#7" type="bike_bicycle"/>
    <trip id="bike12" depart="14.54" departLane="best" from="498920713#8" to="125553452#10" type="bike_bicycle"/>
    <trip id="bike13" depart="15.75" departLane="best" from="-145483361#5" to="-149824695#4" type="bike_bicycle"/>
    <trip id="bike14" depart="16.96" departLane="best" from="431592581#1" to="217199009#3" type="bike_bicycle"/>
    <trip id="bike15" depart="18.18" departLane="best" from="406494982#8" to="312688113#6" type="bike_bicycle"/>
    <trip id="bike16" depart="19.39" departLane="best" from="217101889#7" to="549439982#2" type="bike_bicycle"/>
    <trip id="bike17" depart="20.60" departLane="best" from="132973775" to="217198967#4" type="bike_bicycle"/>
    <trip id="bike18" depart="21.81" departLane="best" from="406500090#2" to="217202627#1" type="bike_bicycle"/>
    <trip id="bike19" depart="23.02" departLane="best" from="431592588#15" to="217198991#11" type="bike_bicycle"/>
    <trip id="bike20" depart="24.23" departLane="best" from="312538639#2" to="-125017662#1" type="bike_bicycle"/>
    <trip id="bike21" depart="25.45" departLane="best" from="121566461#2" to="123153074#5" type="bike_bicycle"/>
    <trip id="bike22" depart="26.66" departLane="best" from="-125579164#3" to="121636110" type="bike_bicycle"/>
    <trip id="bike23" depart="27.87" departLane="best" from="-154963161#0" to="123151902#0" type="bike_bicycle"/>
    <trip id="bike24" depart="29.08" departLane="best" from="284769914#0" to="132740645#4" type="bike_bicycle"/>
    <trip id="bike25" depart="30.29" departLane="best" from="132740673#2" to="119271025#3" type="bike_bicycle"/>
    <trip id="bike26" depart="31.50" departLane="best" from="123151892#9" to="45258667#6" type="bike_bicycle"/>
    <trip id="bike27" depart="32.72" departLane="best" from="298742255#3" to="217202620#0" type="bike_bicycle"/>
    <trip id="bike28" depart="33.93" departLane="best" from="-94477754#4" to="312688113#5" type="bike_bicycle"/>
    <trip id="bike29" depart="35.14" departLane="best" from="-596198027#1" to="132973778" type="bike_bicycle"/>
    <trip id="bike30" depart="36.35" departLane="best" from="596202474#4" to="284769925#3" type="bike_bicycle"/>
    <trip id="bike31" depart="37.56" departLane="best" from="217198970#2" to="30576579#7" type="bike_bicycle"/>
    <trip id="bike32" depart="38.77" departLane="best" from="431592580#19" to="361610712#16" type="bike_bicycle"/>
    <trip id="bike33" depart="39.99" departLane="best" from="121566479#3" to="-123153078#3" type="bike_bicycle"/>
    <trip id="bike34" depart="41.20" departLane="best" from="125017665#4" to="123151892#3" type="bike_bicycle"/>
    <trip id="bike35" depart="42.41" departLane="best" from="431593418#0" to="125017665#10" type="bike_bicycle"/>
    <trip id="bike36" depart="43.62" departLane="best" from="298742277#10" to="146819245#1" type="bike_bicycle"/>
    <trip id="bike37" depart="44.83" departLane="best" from="431593439#4" to="167280591#13" type="bike_bicycle"/>
    <trip id="bike38" depart="46.04" departLane="best" from="123151892#3" to="122735101#16" type="bike_bicycle"/>
    <trip id="bike39" depart="47.26" departLane="best" from="217198972#2" to="123151889#5" type="bike_bicycle"/>
    <trip id="bike40" depart="48.47" departLane="best" from="217198995#5" to="431593428#1" type="bike_bicycle"/>
    <trip id="bike41" depart="49.68" departLane="best" from="151666818#2" to="119409677#9" type="bike_bicycle"/>
    <trip id="bike42" depart="50.89" departLane="best" from="89819896" to="217101883#0" type="bike_bicycle"/>
    <trip id="bike43" depart="52.10" departLane="best" from="-145483360#0" to="-125017665#10" type="bike_bicycle"/>
    <trip id="bike44" depart="53.31" departLane="best" from="-154966573" to="217202632#2" type="bike_bicycle"/>
    <trip id="bike45" depart="54.53" departLane="best" from="402266294#6" to="154966413#0" type="bike_bicycle"/>
    <trip id="bike46" depart="55.74" departLane="best" from="-125553447#3" to="13865999#0" type="bike_bicycle"/>
    <trip id="bike47" depart="56.95" departLane="best" from="82686741#5" to="217101888#20" type="bike_bicycle"/>
    <trip id="bike48" depart="58.16" departLane="best" from="547727189#2" to="431592588#16" type="bike_bicycle"/>
    <trip id="bike49" depart="59.37" departLane="best" from="-119417247#7" to="312538668#7" type="bike_bicycle"/>
    <trip id="bike50" depart="60.58" departLane="best" from="30576579#16" to="217101889#18" type="bike_bicycle"/>
    <trip id="bike51" depart="61.80" departLane="best" from="123151892#9" to="284769925#6" type="bike_bicycle"/>
    <trip id="bike52" depart="63.01" departLane="best" from="-156397984#2" to="157490798#12" type="bike_bicycle"/>
    <trip id="bike53" depart="64.22" departLane="best" from="167263003" to="463972124#8" type="bike_bicycle"/>
    <trip id="bike54" depart="65.43" departLane="best" from="431593417#3" to="123151889#7" type="bike_bicycle"/>
    <trip id="bike55" depart="66.64" departLane="best" from="217101882#11" to="105538493#0" type="bike_bicycle"/>
    <trip id="bike56" depart="67.85" departLane="best" from="431593438#0" to="431593415#16" type="bike_bicycle"/>
    <trip id="bike57" depart="69.07" departLane="best" from="123154555#3" to="284769914#5" type="bike_bicycle"/>
    <trip id="bike58" depart="70.28" departLane="best" from="217202621#0" to="-431592586#5" type="bike_bicycle"/>
    <trip id="bike59" depart="71.49" departLane="best" from="33266644#0" to="217101889#6" type="bike_bicycle"/>
    <trip id="bike60" depart="72.70" departLane="best" from="361610712#16" to="217101888#25" type="bike_bicycle"/>
    <trip id="bike61" depart="73.91" departLane="best" from="-105857084#1" to="125017671#10" type="bike_bicycle"/>
    <trip id="bike62" depart="75.13" departLane="best" from="-123151887#9" to="45258663#2" type="bike_bicycle"/>
    <trip id="bike63" depart="76.34" departLane="best" from="431593419#14" to="431592572#4" type="bike_bicycle"/>
    <trip id="bike64" depart="77.55" departLane="best" from="124938966#6" to="-125017673#7" type="bike_bicycle"/>
    <trip id="bike65" depart="78.76" departLane="best" from="431593419#12" to="463580244#11" type="bike_bicycle"/>
    <trip id="bike66" depart="79.97" departLane="best" from="-132740673#0" to="188229657#5" type="bike_bicycle"/>
    <trip id="bike67" depart="81.18" departLane="best" from="-125565889#3" to="33266644#10" type="bike_bicycle"/>
    <trip id="bike68" depart="82.40" departLane="best" from="33266644#3" to="-217202624#4" type="bike_bicycle"/>
    <trip id="bike69" depart="83.61" departLane="best" from="172365954#2" to="217198967#10" type="bike_bicycle"/>
    <trip id="bike70" depart="84.82" departLane="best" from="123151892#3" to="431593415#6" type="bike_bicycle"/>
    <trip id="bike71" depart="86.03" departLane="best" from="154966413#2" to="119407978#2" type="bike_bicycle"/>
    <trip id="bike72" depart="87.24" departLane="best" from="217101890#5" to="312688113#6" type="bike_bicycle"/>
    <trip id="bike73" depart="88.45" departLane="best" from="113540628#1" to="124945316#2" type="bike_bicycle"/>
    <trip id="bike74" depart="89.67" departLane="best" from="82686741#2" to="298742255#2" type="bike_bicycle"/>
    <trip id="bike75" depart="90.88" departLane="best" from="158309218#0" to="217101884#2" type="bike_bicycle"/>
    <trip id="bike76" depart="92.09" departLane="best" from="-217199008#0" to="120209283#18" type="bike_bicycle"/>
    <trip id="bike77" depart="93.30" departLane="best" from="125565888#1" to="217198996#12" type="bike_bicycle"/>
    <trip id="bike78" depart="94.51" departLane="best" from="121636110" to="119417248#2" type="bike_bicycle"/>
    <trip id="bike79" depart="95.72" departLane="best" from="-125579158#1" to="217202639#3" type="bike_bicycle"/>
    <trip id="bike80" depart="96.94" departLane="best" from="121566479#2" to="431593434#0" type="bike_bicycle"/>
    <trip id="bike81" depart="98.15" departLane="best" from="431592587#1" to="-125579158#1" type="bike_bicycle"/>
    <trip id="bike82" depart="99.36" departLane="best" from="122601941#11" to="298742300#3" type="bike_bicycle"/>
    <trip id="bike83" depart="100.57" departLane="best" from="119409676#2" to="-30756236#3" type="bike_bicycle"/>
    <trip id="bike84" depart="101.78" departLane="best" from="45258670#0" to="217198976#6" type="bike_bicycle"/>
    <trip id="bike86" depart="104.21" departLane="best" from="406494982#9" to="105954223#0" type="bike_bicycle"/>
    <trip id="bike88" depart="106.63" departLane="best" from="154966413#3" to="172365945#4" type="bike_bicycle"/>
    <trip id="bike89" depart="107.84" departLane="best" from="312688112#8" to="301319790#18" type="bike_bicycle"/>
    <trip id="bike90" depart="109.05" departLane="best" from="596202473#12" to="-154963153#0" type="bike_bicycle"/>
    <trip id="bike91" depart="110.26" departLane="best" from="154187242#5" to="125553452#9" type="bike_bicycle"/>
    <trip id="bike92" depart="111.48" departLane="best" from="431592588#14" to="122735101#20" type="bike_bicycle"/>
    <trip id="bike94" depart="113.90" departLane="best" from="154966413#11" to="123151902#10" type="bike_bicycle"/>
    <trip id="bike95" depart="115.11" departLane="best" from="123151886#12" to="431593445#4" type="bike_bicycle"/>
    <trip id="bike96" depart="116.32" departLane="best" from="158393750#10" to="431592588#19" type="bike_bicycle"/>
    <trip id="bike97" depart="117.53" departLane="best" from="217198967#7" to="-125017665#7" type="bike_bicycle"/>
    <trip id="bike98" depart="118.75" departLane="best" from="94477754#7" to="431592577#5" type="bike_bicycle"/>
    <trip id="bike99" depart="119.96" departLane="best" from="547727186#4" to="449719491#2" type="bike_bicycle"/>
    <trip id="bike100" depart="121.17" departLane="best" from="431592582#2" to="-596198027#7" type="bike_bicycle"/>
    <trip id="bike101" depart="122.38" departLane="best" from="217101877#12" to="119409501#4" type="bike_bicycle"/>
    <trip id="bike102" depart="123.59" departLane="best" from="154187242#11" to="-125039731#0" type="bike_bicycle"/>
    <trip id="bike103" depart="124.80" departLane="best" from="132973775" to="596202473#15" type="bike_bicycle"/>
    <trip id="bike104" depart="126.02" departLane="best" from="123151892#4" to="362109938#2" type="bike_bicycle"/>
    <trip id="bike105" depart="127.23" departLane="best" from="167280591#12" to="154966413#10" type="bike_bicycle"/>
    <trip id="bike106" depart="128.44" departLane="best" from="498920713#8" to="82686741#3" type="bike_bicycle"/>
    <trip id="bike107" depart="129.65" departLane="best" from="217198969#4" to="312538668#32" type="bike_bicycle"/>
    <trip id="bike108" depart="130.86" departLane="best" from="-431593445#7" to="123154547" type="bike_bicycle"/>
    <trip id="bike109" depart="132.07" departLane="best" from="547727186#3" to="217198991#3" type="bike_bicycle"/>
    <trip id="bike110" depart="133.29" departLane="best" from="217101891#11" to="31822118#3" type="bike_bicycle"/>
    <trip id="bike111" depart="134.50" departLane="best" from="-125017673#4" to="217198993#2" type="bike_bicycle"/>
    <trip id="bike112" depart="135.71" departLane="best" from="217101882#17" to="431592584#2" type="bike_bicycle"/>
    <trip id="bike113" depart="136.92" departLane="best" from="-45258665#1" to="508287158#0" type="bike_bicycle"/>
    <trip id="bike114" depart="138.13" departLane="best" from="-132668463#0" to="105857090#12" type="bike_bicycle"/>
    <trip id="bike115" depart="139.34" departLane="best" from="217199004#0" to="301319790#22" type="bike_bicycle"/>
    <trip id="bike116" depart="140.56" departLane="best" from="122601938#1" to="-217199006#1" type="bike_bicycle"/>
    <trip id="bike117" depart="141.77" departLane="best" from="431593425#5" to="122735101#15" type="bike_bicycle"/>
    <trip id="bike118" depart="142.98" departLane="best" from="217199002#6" to="217202627#5" type="bike_bicycle"/>
    <trip id="bike119" depart="144.19" departLane="best" from="154963174#1" to="217198993#0" type="bike_bicycle"/>
    <trip id="bike120" depart="145.40" departLane="best" from="217101886#8" to="45258667#0" type="bike_bicycle"/>
    <trip id="bike121" depart="146.62" departLane="best" from="113540628#9" to="312538668#26" type="bike_bicycle"/>
    <trip id="bike122" depart="147.83" departLane="best" from="122601941#13" to="146819245#2" type="bike_bicycle"/>
    <trip id="bike123" depart="149.04" departLane="best" from="301319790#13" to="123154555#0" type="bike_bicycle"/>
    <trip id="bike124" depart="150.25" departLane="best" from="125017665#7" to="33265737#2" type="bike_bicycle"/>
    <trip id="bike125" depart="151.46" departLane="best" from="-125579158#5" to="167280591#12" type="bike_bicycle"/>
    <trip id="bike126" depart="152.67" departLane="best" from="94477754#4" to="82686741#5" type="bike_bicycle"/>
    <trip id="bike127" depart="153.89" departLane="best" from="-125579158#7" to="119409501#1" type="bike_bicycle"/>
    <trip id="bike128" depart="155.10" departLane="best" from="123151892#4" to="45258666#5" type="bike_bicycle"/>
    <trip id="bike129" depart="156.31" departLane="best" from="431593419#20" to="431593419#17" type="bike_bicycle"/>
    <trip id="bike130" depart="157.52" departLane="best" from="132740666#2" to="-45258665#0" type="bike_bicycle"/>
    <trip id="bike131" depart="158.73" departLane="best" from="431592572#0" to="312538639#13" type="bike_bicycle"/>
    <trip id="bike132" depart="159.94" departLane="best" from="217202623#0" to="596202473#7" type="bike_bicycle"/>
    <trip id="bike133" depart="161.16" departLane="best" from="298742263#1" to="-119407977#4" type="bike_bicycle"/>
    <trip id="bike134" depart="162.37" departLane="best" from="406495003" to="123154552#6" type="bike_bicycle"/>
    <trip id="bike135" depart="163.58" departLane="best" from="298742287#7" to="45258670#12" type="bike_bicycle"/>
    <trip id="bike136" depart="164.79" departLane="best" from="-317322104#0" to="-158404854#2" type="bike_bicycle"/>
    <trip id="bike137" depart="166.00" departLane="best" from="-154963174#1" to="217198967#7" type="bike_bicycle"/>
    <trip id="bike138" depart="167.21" departLane="best" from="123151901#2" to="217199009#6" type="bike_bicycle"/>
    <trip id="bike139" depart="168.43" departLane="best" from="312538668#26" to="113540628#2" type="bike_bicycle"/>
    <trip id="bike140" depart="169.64" departLane="best" from="220080268#3" to="123151889#9" type="bike_bicycle"/>
    <trip id="bike141" depart="170.85" departLane="best" from="217101877#8" to="431593434#0" type="bike_bicycle"/>
    <trip id="bike142" depart="172.06" departLane="best" from="431592580#5" to="-145483361#3" type="bike_bicycle"/>
    <trip id="bike143" depart="173.27" departLane="best" from="154966413#3" to="123151901#7" type="bike_bicycle"/>
    <trip id="bike144" depart="174.48" departLane="best" from="-113540624#13" to="33266754#8" type="bike_bicycle"/>
    <trip id="bike145" depart="175.70" departLane="best" from="284769914#5" to="123151889#3" type="bike_bicycle"/>
    <trip id="bike146" depart="176.91" departLane="best" from="317256481#13" to="217198967#3" type="bike_bicycle"/>
    <trip id="bike147" depart="178.12" departLane="best" from="155305301#1" to="-119417247#2" type="bike_bicycle"/>
    <trip id="bike148" depart="179.33" departLane="best" from="-125579163#0" to="431593419#8" type="bike_bicycle"/>
    <trip id="bike149" depart="180.54" departLane="best" from="431593431#9" to="217101891#13" type="bike_bicycle"/>
    <trip id="bike150" depart="181.75" departLane="best" from="431592572#2" to="217198992#3" type="bike_bicycle"/>
    <trip id="bike151" depart="182.97" departLane="best" from="-431592586#14" to="-217202624#1" type="bike_bicycle"/>
    <trip id="bike152" depart="184.18" departLane="best" from="124938966#8" to="431593429#5" type="bike_bicycle"/>
    <trip id="bike153" depart="185.39" departLane="best" from="402795292#4" to="431592588#16" type="bike_bicycle"/>
    <trip id="bike154" depart="186.60" departLane="best" from="431593430#1" to="119407977#2" type="bike_bicycle"/>
    <trip id="bike155" depart="187.81" departLane="best" from="123151886#11" to="-154963166#0" type="bike_bicycle"/>
    <trip id="bike156" depart="189.02" departLane="best" from="361610712#2" to="431593420#1" type="bike_bicycle"/>
    <trip id="bike157" depart="190.24" departLane="best" from="154904493#12" to="217202629#1" type="bike_bicycle"/>
    <trip id="bike158" depart="191.45" departLane="best" from="-431593445#7" to="45258663#4" type="bike_bicycle"/>
    <trip id="bike159" depart="192.66" departLane="best" from="431592588#23" to="596198027#5" type="bike_bicycle"/>
    <trip id="bike160" depart="193.87" departLane="best" from="406494988#2" to="431593419#3" type="bike_bicycle"/>
    <trip id="bike161" depart="195.08" departLane="best" from="-123153074#11" to="317256480#4" type="bike_bicycle"/>
    <trip id="bike163" depart="197.51" departLane="best" from="406472087#2" to="431592588#5" type="bike_bicycle"/>
    <trip id="bike164" depart="198.72" departLane="best" from="406494988#2" to="123151892#12" type="bike_bicycle"/>
    <trip id="bike165" depart="199.93" departLane="best" from="362109938#5" to="-154966407#1" type="bike_bicycle"/>
    <trip id="bike166" depart="201.14" departLane="best" from="431593415#3" to="431592588#1" type="bike_bicycle"/>
    <trip id="bike167" depart="202.35" departLane="best" from="120209283#17" to="406495006#2" type="bike_bicycle"/>
    <trip id="bike168" depart="203.56" departLane="best" from="172365945#10" to="124917319#5" type="bike_bicycle"/>
    <trip id="bike169" depart="204.78" departLane="best" from="402795292#1" to="120209283#4" type="bike_bicycle"/>
    <trip id="bike170" depart="205.99" departLane="best" from="-123153072#3" to="106327587#1" type="bike_bicycle"/>
    <trip id="bike171" depart="207.20" departLane="best" from="125017673#7" to="431592588#5" type="bike_bicycle"/>
    <trip id="bike172" depart="208.41" departLane="best" from="547727185#3" to="123151902#12" type="bike_bicycle"/>
    <trip id="bike173" depart="209.62" departLane="best" from="28551894#2" to="151666818#2" type="bike_bicycle"/>
    <trip id="bike174" depart="210.83" departLane="best" from="596198028#5" to="217101889#16" type="bike_bicycle"/>
    <trip id="bike175" depart="212.05" departLane="best" from="45258670#19" to="-158404854#2" type="bike_bicycle"/>
    <trip id="bike176" depart="213.26" departLane="best" from="547727189#0" to="105538493#0" type="bike_bicycle"/>
    <trip id="bike177" depart="214.47" departLane="best" from="508287158#5" to="123151892#0" type="bike_bicycle"/>
    <trip id="bike178" depart="215.68" departLane="best" from="-154966409" to="157490798#12" type="bike_bicycle"/>
    <trip id="bike179" depart="216.89" departLane="best" from="312688112#7" to="125017662#2" type="bike_bicycle"/>
    <trip id="bike180" depart="218.11" departLane="best" from="217202618#1" to="217101883#14" type="bike_bicycle"/>
    <trip id="bike181" depart="219.32" departLane="best" from="13866063#2" to="217198991#0" type="bike_bicycle"/>
    <trip id="bike182" depart="220.53" departLane="best" from="123151887#13" to="312538652#8" type="bike_bicycle"/>
    <trip id="bike183" depart="221.74" departLane="best" from="-113540624#0" to="43990256" type="bike_bicycle"/>
    <trip id="bike184" depart="222.95" departLane="best" from="217101890#3" to="312538668#34" type="bike_bicycle"/>
    <trip id="bike185" depart="224.16" departLane="best" from="317256481#15" to="301319790#10" type="bike_bicycle"/>
    <trip id="bike186" depart="225.38" departLane="best" from="132740650#0" to="-125579156" type="bike_bicycle"/>
    <trip id="bike187" depart="226.59" departLane="best" from="298742289#0" to="125017673#7" type="bike_bicycle"/>
    <trip id="bike188" depart="227.80" departLane="best" from="125017665#14" to="431592582#6" type="bike_bicycle"/>
    <trip id="bike189" depart="229.01" departLane="best" from="312538668#32" to="123154555#1" type="bike_bicycle"/>
    <trip id="bike190" depart="230.22" departLane="best" from="124945316#1" to="154904493#15" type="bike_bicycle"/>
    <trip id="bike191" depart="231.43" departLane="best" from="154187242#4" to="123154546#2" type="bike_bicycle"/>
    <trip id="bike192" depart="232.65" departLane="best" from="-217202624#1" to="154963174#1" type="bike_bicycle"/>
    <trip id="bike193" depart="233.86" departLane="best" from="45258670#21" to="301319790#29" type="bike_bicycle"/>
    <trip id="bike194" depart="235.07" departLane="best" from="431593431#6" to="217202623#5" type="bike_bicycle"/>
    <trip id="bike195" depart="236.28" departLane="best" from="123155564#1" to="217101891#7" type="bike_bicycle"/>
    <trip id="bike196" depart="237.49" departLane="best" from="-105857084#1" to="123153074#12" type="bike_bicycle"/>
    <trip id="bike197" depart="238.70" departLane="best" from="156397984#1" to="217198991#6" type="bike_bicycle"/>
    <trip id="bike198" depart="239.92" departLane="best" from="298742263#3" to="172365945#13" type="bike_bicycle"/>
    <trip id="bike199" depart="241.13" departLane="best" from="158393748" to="119409501#3" type="bike_bicycle"/>
    <trip id="bike200" depart="242.34" departLane="best" from="172365954#1" to="431593431#14" type="bike_bicycle"/>
    <trip id="bike201" depart="243.55" departLane="best" from="402795292#3" to="-82685235#7" type="bike_bicycle"/>
    <trip id="bike202" depart="244.76" departLane="best" from="-132740666#0" to="217101884#10" type="bike_bicycle"/>
    <trip id="bike203" depart="245.97" departLane="best" from="217202641#8" to="125553447#2" type="bike_bicycle"/>
    <trip id="bike204" depart="247.19" departLane="best" from="406495004#3" to="33265683#3" type="bike_bicycle"/>
    <trip id="bike205" depart="248.40" departLane="best" from="301319790#16" to="120209283#18" type="bike_bicycle"/>
    <trip id="bike206" depart="249.61" departLane="best" from="113540625#6" to="-123153074#10" type="bike_bicycle"/>
    <trip id="bike207" depart="250.82" departLane="best" from="122735101#16" to="172365952#2" type="bike_bicycle"/>
    <trip id="bike208" depart="252.03" departLane="best" from="431592582#5" to="-125579158#6" type="bike_bicycle"/>
    <trip id="bike209" depart="253.24" departLane="best" from="154963165" to="217202636#3" type="bike_bicycle"/>
    <trip id="bike210" depart="254.46" departLane="best" from="106463612#3" to="30756257#2" type="bike_bicycle"/>
    <trip id="bike211" depart="255.67" departLane="best" from="217101880#2" to="122601941#8" type="bike_bicycle"/>
    <trip id="bike212" depart="256.88" departLane="best" from="298742277#11" to="-113540624#7" type="bike_bicycle"/>
    <trip id="bike213" depart="258.09" departLane="best" from="33262851#2" to="33266754#5" type="bike_bicycle"/>
    <trip id="bike214" depart="259.30" departLane="best" from="-154963174#0" to="154966413#4" type="bike_bicycle"/>
    <trip id="bike215" depart="260.51" departLane="best" from="105207833#2" to="498920713#8" type="bike_bicycle"/>
    <trip id="bike216" depart="261.73" departLane="best" from="217101886#0" to="-125017665#6" type="bike_bicycle"/>
    <trip id="bike217" depart="262.94" departLane="best" from="123151886#10" to="431592582#6" type="bike_bicycle"/>
    <trip id="bike218" depart="264.15" departLane="best" from="167280591#17" to="406494981#1" type="bike_bicycle"/>
    <trip id="bike219" depart="265.36" departLane="best" from="298742300#3" to="596202473#9" type="bike_bicycle"/>
    <trip id="bike220" depart="266.57" departLane="best" from="217199004#1" to="463972124#1" type="bike_bicycle"/>
    <trip id="bike221" depart="267.78" departLane="best" from="431593426#1" to="217202621#5" type="bike_bicycle"/>
    <trip id="bike222" depart="269.00" departLane="best" from="312538668#30" to="217101882#13" type="bike_bicycle"/>
    <trip id="bike223" depart="270.21" departLane="best" from="406500092" to="217101891#7" type="bike_bicycle"/>
    <trip id="bike224" depart="271.42" departLane="best" from="431593429#2" to="317322104#10" type="bike_bicycle"/>
    <trip id="bike225" depart="272.63" departLane="best" from="172365954#13" to="123151887#7" type="bike_bicycle"/>
    <trip id="bike226" depart="273.84" departLane="best" from="122735101#7" to="284769914#0" type="bike_bicycle"/>
    <trip id="bike227" depart="275.05" departLane="best" from="33266644#3" to="217101886#1" type="bike_bicycle"/>
    <trip id="bike228" depart="276.27" departLane="best" from="217202635#1" to="123151901#1" type="bike_bicycle"/>
    <trip id="bike229" depart="277.48" departLane="best" from="-125579163#7" to="123153074#0" type="bike_bicycle"/>
    <trip id="bike230" depart="278.69" departLane="best" from="123151901#1" to="125017666#2" type="bike_bicycle"/>
    <trip id="bike231" depart="279.90" departLane="best" from="217101890#8" to="-33262855#1" type="bike_bicycle"/>
    <trip id="bike232" depart="281.11" departLane="best" from="122316729#2" to="30756233#3" type="bike_bicycle"/>
    <trip id="bike233" depart="282.32" departLane="best" from="312538639#9" to="-125553452#1" type="bike_bicycle"/>
    <trip id="bike234" depart="283.54" departLane="best" from="154904493#3" to="217101890#5" type="bike_bicycle"/>
    <trip id="bike235" depart="284.75" departLane="best" from="154963166#3" to="119108800#2" type="bike_bicycle"/>
    <trip id="bike236" depart="285.96" departLane="best" from="154966407#1" to="431593432#0" type="bike_bicycle"/>
    <trip id="bike237" depart="287.17" departLane="best" from="217198995#4" to="30756236#2" type="bike_bicycle"/>
    <trip id="bike238" depart="288.38" departLane="best" from="431592584#5" to="33266672#0" type="bike_bicycle"/>
    <trip id="bike239" depart="289.59" departLane="best" from="134165054#1" to="-113540624#8" type="bike_bicycle"/>
    <trip id="bike240" depart="290.81" departLane="best" from="127135482#3" to="33265860#1" type="bike_bicycle"/>
    <trip id="bike241" depart="292.02" departLane="best" from="431592584#18" to="463972124#7" type="bike_bicycle"/>
    <trip id="bike242" depart="293.23" departLane="best" from="154963174#1" to="31822118#2" type="bike_bicycle"/>
    <trip id="bike243" depart="294.44" departLane="best" from="217101891#9" to="217199009#1" type="bike_bicycle"/>
    <trip id="bike244" depart="295.65" departLane="best" from="120209283#12" to="119409677#9" type="bike_bicycle"/>
    <trip id="bike245" depart="296.87" departLane="best" from="157490798#4" to="-123153075" type="bike_bicycle"/>
    <trip id="bike246" depart="298.08" departLane="best" from="125553452#4" to="301319790#5" type="bike_bicycle"/>
    <trip id="bike247" depart="299.29" departLane="best" from="154187250" to="-596198027#2" type="bike_bicycle"/>
    <trip id="bike248" depart="300.50" departLane="best" from="172365948#0" to="-217202624#2" type="bike_bicycle"/>
    <trip id="bike249" depart="301.71" departLane="best" from="217202630#3" to="-123153074#3" type="bike_bicycle"/>
    <trip id="bike250" depart="302.92" departLane="best" from="146819220#0" to="217198972#3" type="bike_bicycle"/>
    <trip id="bike251" depart="304.14" departLane="best" from="-123153074#4" to="28551894#2" type="bike_bicycle"/>
    <trip id="bike252" depart="305.35" departLane="best" from="-317322104#12" to="167280591#7" type="bike_bicycle"/>
    <trip id="bike253" depart="306.56" departLane="best" from="-125017665#6" to="132973777" type="bike_bicycle"/>
    <trip id="bike254" depart="307.77" departLane="best" from="119409501#0" to="125017671#9" type="bike_bicycle"/>
    <trip id="bike255" depart="308.98" departLane="best" from="33266147#1" to="132973777" type="bike_bicycle"/>
    <trip id="bike256" depart="310.19" departLane="best" from="33262851#5" to="431592573#1" type="bike_bicycle"/>
    <trip id="bike257" depart="311.41" departLane="best" from="123151886#7" to="-132740650#1" type="bike_bicycle"/>
    <trip id="bike258" depart="312.62" departLane="best" from="-123151887#9" to="217101889#7" type="bike_bicycle"/>
    <trip id="bike259" depart="313.83" departLane="best" from="94477754#9" to="125579163#4" type="bike_bicycle"/>
    <trip id="bike260" depart="315.04" departLane="best" from="298742258#13" to="362106496#2" type="bike_bicycle"/>
    <trip id="bike261" depart="316.25" departLane="best" from="298742258#4" to="33266071#1" type="bike_bicycle"/>