<?xml version="1.0" encoding="UTF-8"?>

<!-- generated on 09/25/18 16:10:13 by Eclipse SUMO duarouter Version 1.0.1
<configuration xmlns:xsi="http://www.w3.org/2001/XMLSchema-instance" xsi:noNamespaceSchemaLocation="http://sumo.dlr.de/xsd/duarouterConfiguration.xsd">

    <input>
        <net-file value="osm.net.xml"/>
        <route-files value="test\test.xml"/>
    </input>

    <output>
        <output-file value="MySUMORoutesTest.rou.xml"/>
        <alternatives-output value="MySUMORoutesTest.rou.alt.xml"/>
    </output>

    <processing>
        <unsorted-input value="true"/>
        <randomize-flows value="true"/>
    </processing>

    <time>
        <begin value="0"/>
        <end value="3000"/>
    </time>

</configuration>
-->

<routes xmlns:xsi="http://www.w3.org/2001/XMLSchema-instance" xsi:noNamespaceSchemaLocation="http://sumo.dlr.de/xsd/routes_file.xsd">
    <vType id="bike" length="0.60" vClass="bicycle" width="0.20"/>
    <vehicle id="bike_3.0" type="bike" depart="0.79" departPos="random_free">
        <route edges="167280591#13 298742258#4 122601941#11 431593439#6 431593439#7 119409501#0 -119417247#3"/>
    </vehicle>
    <vehicle id="bike_7.0" type="bike" depart="2.36" departPos="random_free">
        <route edges="127152801#1 127152801#2 127152801#3 127152801#4 127152801#5 431593436 431593439#2 431593439#3 120209283#12 -119417247#7 -119417247#6 -119417247#5 -119417247#4 -119417247#3"/>
    </vehicle>
    <vehicle id="bike_27.0" type="bike" depart="2.75" departPos="random_free">
        <route edges="431593421#6 105207833#14 498920722#3 498920722#4 33266644#15 33266672#0 298742305#5 298742305#6 301319790#17 301319790#18 301319790#19 301319790#20 301319790#21 301319790#22 301319790#23 431593436 431593439#2 431593439#3 120209283#12 -119417247#7 -119417247#6 -119417247#5 -119417247#4 -119417247#3"/>
    </vehicle>
    <vehicle id="bike_13.0" type="bike" depart="2.83" departPos="random_free">
        <route edges="106327587#5 158404854#1 158404854#2 132740673#0 132740673#2 -156397984#3 -156397984#2 -158309218#0 -113540626 596198027#3 596198027#5 596198027#7 596198027#8 596198027#9 66208988#2 66208988#3 125565890 167280591#11 -119417247#4 -119417247#3"/>
    </vehicle>
    <vehicle id="bike_38.0" type="bike" depart="3.08" departPos="random_free">
        <route edges="431592588#2 132742473#9 132742473#10 132742473#11 132742473#12 132742473#13 132742473#14 132742473#15 120209283#0 120209283#1 120209283#2 120209283#3 120209283#4 120209283#5 120209283#6 120209283#7 120209283#8 120209283#9 120209283#11 120209283#12 -119417247#7 -119417247#6 -119417247#5 -119417247#4 -119417247#3"/>
    </vehicle>
    <vehicle id="bike_25.0" type="bike" depart="4.77" departPos="random_free">
        <route edges="-132973777 283453679 217202636#1 217202636#2 106327587#0 106327587#1 312688112#3 312688112#4 312688112#6 312688112#7 312688112#8 312688112#9 122601941#2 122601941#3 122601941#4 122601941#5 122601941#6 122601941#7 122601941#8 122601941#9 122601941#11 431593439#6 431593439#7 119409501#0 -119417247#3"/>
    </vehicle>
    <vehicle id="bike_14.0" type="bike" depart="6.14" departPos="random_free">
        <route edges="431593429#5 82684073#0 82684073#1 13866063#3 13866063#4 13866063#5 127152801#3 127152801#4 127152801#5 431593436 431593439#2 431593439#3 120209283#12 -119417247#7 -119417247#6 -119417247#5 -119417247#4 -119417247#3"/>
    </vehicle>
    <vehicle id="bike_15.0" type="bike" depart="8.55" departPos="random_free">
        <route edges="120209283#1 120209283#2 120209283#3 120209283#4 120209283#5 120209283#6 120209283#7 120209283#8 120209283#9 120209283#11 120209283#12 -119417247#7 -119417247#6 -119417247#5 -119417247#4 -119417247#3"/>
    </vehicle>
    <vehicle id="bike_26.0" type="bike" depart="8.91" departPos="random_free">
        <route edges="-105857084#0 130927682#16 547727187 547727185#0 547727185#1 547727185#2 132742473#14 132742473#15 120209283#0 120209283#1 120209283#2 120209283#3 120209283#4 120209283#5 120209283#6 120209283#7 120209283#8 120209283#9 120209283#11 120209283#12 -119417247#7 -119417247#6 -119417247#5 -119417247#4 -119417247#3"/>
    </vehicle>
    <vehicle id="bike_0.0" type="bike" depart="9.74" departPos="random_free">
        <route edges="-119417247#3"/>
    </vehicle>
    <vehicle id="bike_11.0" type="bike" depart="11.12" departPos="random_free">
        <route edges="122546198#0 122546198#1 122546198#2 122601941#6 122601941#7 122601941#8 122601941#9 122601941#11 431593439#6 431593439#7 119409501#0 -119417247#3"/>
    </vehicle>
    <vehicle id="bike_34.0" type="bike" depart="12.32" departPos="random_free">
        <route edges="220080268#2 220080268#3 217101884#9 217101884#10 217101884#11 172365948#4 172365948#5 317256481#13 317256481#14 132742473#12 132742473#13 132742473#14 132742473#15 120209283#0 120209283#1 120209283#2 120209283#3 120209283#4 120209283#5 120209283#6 120209283#7 120209283#8 120209283#9 120209283#11 120209283#12 -119417247#7 -119417247#6 -119417247#5 -119417247#4 -119417247#3"/>
    </vehicle>
    <vehicle id="bike_14.1" type="bike" depart="12.93" departPos="random_free">
        <route edges="431593429#5 82684073#0 82684073#1 13866063#3 13866063#4 13866063#5 127152801#3 127152801#4 127152801#5 431593436 431593439#2 431593439#3 120209283#12 -119417247#7 -119417247#6 -119417247#5 -119417247#4 -119417247#3"/>
    </vehicle>
    <vehicle id="bike_7.1" type="bike" depart="13.05" departPos="random_free">
        <route edges="127152801#1 127152801#2 127152801#3 127152801#4 127152801#5 431593436 431593439#2 431593439#3 120209283#12 -119417247#7 -119417247#6 -119417247#5 -119417247#4 -119417247#3"/>
    </vehicle>
    <vehicle id="bike_3.1" type="bike" depart="13.56" departPos="random_free">
        <route edges="167280591#13 298742258#4 122601941#11 431593439#6 431593439#7 119409501#0 -119417247#3"/>
    </vehicle>
    <vehicle id="bike_4.0" type="bike" depart="16.72" departPos="random_free">
        <route edges="167280591#16 167280591#17 113540628#5 113540628#6 284769926#1 284769926#2 298742258#3 298742258#4 122601941#11 431593439#6 431593439#7 119409501#0 -119417247#3"/>
    </vehicle>
    <vehicle id="bike_27.1" type="bike" depart="17.15" departPos="random_free">
        <route edges="431593421#6 105207833#14 498920722#3 498920722#4 33266644#15 33266672#0 298742305#5 298742305#6 301319790#17 301319790#18 301319790#19 301319790#20 301319790#21 301319790#22 301319790#23 431593436 431593439#2 431593439#3 120209283#12 -119417247#7 -119417247#6 -119417247#5 -119417247#4 -119417247#3"/>
    </vehicle>
    <vehicle id="bike_1.0" type="bike" depart="18.13" departPos="random_free">
        <route edges="-119417247#4 -119417247#3"/>
    </vehicle>
    <vehicle id="bike_0.1" type="bike" depart="18.39" departPos="random_free">
        <route edges="-119417247#3"/>
    </vehicle>
    <vehicle id="bike_36.0" type="bike" depart="18.97" departPos="random_free">
        <route edges="406494993#3 406494993#4 217202620#0 431592588#22 431592588#23 217202639#5 406494990#1 406494990#2 406494996#0 406494996#1 406495003 406495005 406471825#0 406471825#1 406471825#2 406500081#0 406500081#1 406500081#2 406500081#3 406500081#4 406500084#0 406500084#1 406500084#2 406500084#3 406500084#4 406472087#0 406472087#1 66208988#1 66208988#2 66208988#3 125565890 167280591#11 -119417247#4 -119417247#3"/>
    </vehicle>
    <vehicle id="bike_21.0" type="bike" depart="19.61" departPos="random_free">
        <route edges="312538668#16 431593424#0 431593424#1 431593426#0 431593426#1 431593430#0 431593430#1 431593434#0 431593436 431593439#2 431593439#3 120209283#12 -119417247#7 -119417247#6 -119417247#5 -119417247#4 -119417247#3"/>
    </vehicle>
    <vehicle id="bike_20.0" type="bike" depart="20.23" departPos="random_free">
        <route edges="106327587#1 312688112#3 312688112#4 312688112#6 312688112#7 312688112#8 312688112#9 122601941#2 122601941#3 122601941#4 122601941#5 122601941#6 122601941#7 122601941#8 122601941#9 122601941#11 431593439#6 431593439#7 119409501#0 -119417247#3"/>
    </vehicle>
    <vehicle id="bike_24.0" type="bike" depart="20.98" departPos="random_free">
        <route edges="132742473#14 132742473#15 120209283#0 120209283#1 120209283#2 120209283#3 120209283#4 120209283#5 120209283#6 120209283#7 120209283#8 120209283#9 120209283#11 120209283#12 -119417247#7 -119417247#6 -119417247#5 -119417247#4 -119417247#3"/>
    </vehicle>
    <vehicle id="bike_5.0" type="bike" depart="22.71" departPos="random_free">
        <route edges="298742258#12 127152801#5 431593436 431593439#2 431593439#3 120209283#12 -119417247#7 -119417247#6 -119417247#5 -119417247#4 -119417247#3"/>
    </vehicle>
    <vehicle id="bike_20.1" type="bike" depart="23.05" departPos="random_free">
        <route edges="106327587#1 312688112#3 312688112#4 312688112#6 312688112#7 312688112#8 312688112#9 122601941#2 122601941#3 122601941#4 122601941#5 122601941#6 122601941#7 122601941#8 122601941#9 122601941#11 431593439#6 431593439#7 119409501#0 -119417247#3"/>
    </vehicle>
    <vehicle id="bike_30.0" type="bike" depart="24.98" departPos="random_free">
        <route edges="406494990#2 406494996#0 406494996#1 406495003 406495005 406471825#0 406471825#1 406471825#2 406500081#0 406500081#1 406500081#2 406500081#3 406500081#4 406500084#0 406500084#1 406500084#2 406500084#3 406500084#4 406472087#0 406472087#1 66208988#1 66208988#2 66208988#3 125565890 167280591#11 -119417247#4 -119417247#3"/>
    </vehicle>
    <vehicle id="bike_14.2" type="bike" depart="26.51" departPos="random_free">
        <route edges="431593429#5 82684073#0 82684073#1 13866063#3 13866063#4 13866063#5 127152801#3 127152801#4 127152801#5 431593436 431593439#2 431593439#3 120209283#12 -119417247#7 -119417247#6 -119417247#5 -119417247#4 -119417247#3"/>
    </vehicle>
    <vehicle id="bike_2.0" type="bike" depart="27.48" departPos="random_free">
        <route edges="-125565889#2 298742258#1 596198027#7 596198027#8 596198027#9 66208988#2 66208988#3 125565890 167280591#11 -119417247#4 -119417247#3"/>
    </vehicle>
    <vehicle id="bike_32.0" type="bike" depart="33.54" departPos="random_free">
        <route edges="220080268#2 220080268#3 217101884#9 217101884#10 217101884#11 172365948#4 172365948#5 317256481#13 317256481#14 132742473#12 132742473#13 132742473#14 132742473#15 120209283#0 120209283#1 120209283#2 120209283#3 120209283#4 120209283#5 120209283#6 120209283#7 120209283#8 120209283#9 120209283#11 120209283#12 -119417247#7 -119417247#6 -119417247#5 -119417247#4 -119417247#3"/>
    </vehicle>
    <vehicle id="bike_35.0" type="bike" depart="35.70" departPos="random_free">
        <route edges="217202641#2 317256481#3 317256481#4 217101891#12 217101891#13 217101891#14 547727189#3 283453679 217202636#1 217202636#2 106327587#0 106327587#1 312688112#3 312688112#4 312688112#6 312688112#7 312688112#8 312688112#9 122601941#2 122601941#3 122601941#4 122601941#5 122601941#6 122601941#7 122601941#8 122601941#9 122601941#11 431593439#6 431593439#7 119409501#0 -119417247#3"/>
    </vehicle>
    <vehicle id="bike_9.0" type="bike" depart="36.86" departPos="random_free">
        <route edges="406471828#1 122546198#0 122546198#1 122546198#2 122601941#6 122601941#7 122601941#8 122601941#9 122601941#11 431593439#6 431593439#7 119409501#0 -119417247#3"/>
    </vehicle>
    <vehicle id="bike_26.1" type="bike" depart="37.70" departPos="random_free">
        <route edges="-105857084#0 130927682#16 547727187 547727185#0 547727185#1 547727185#2 132742473#14 132742473#15 120209283#0 120209283#1 120209283#2 120209283#3 120209283#4 120209283#5 120209283#6 120209283#7 120209283#8 120209283#9 120209283#11 120209283#12 -119417247#7 -119417247#6 -119417247#5 -119417247#4 -119417247#3"/>
    </vehicle>
    <vehicle id="bike_25.1" type="bike" depart="37.74" departPos="random_free">
        <route edges="-132973777 283453679 217202636#1 217202636#2 106327587#0 106327587#1 312688112#3 312688112#4 312688112#6 312688112#7 312688112#8 312688112#9 122601941#2 122601941#3 122601941#4 122601941#5 122601941#6 122601941#7 122601941#8 122601941#9 122601941#11 431593439#6 431593439#7 119409501#0 -119417247#3"/>
    </vehicle>
    <vehicle id="bike_6.0" type="bike" depart="39.03" departPos="random_free">
        <route edges="-113540626 596198027#3 596198027#5 596198027#7 596198027#8 596198027#9 66208988#2 66208988#3 125565890 167280591#11 -119417247#4 -119417247#3"/>
    </vehicle>
    <vehicle id="bike_28.0" type="bike" depart="46.90" departPos="random_free">
        <route edges="312538668#20 431593419#2 431593419#3 132742473#13 132742473#14 132742473#15 120209283#0 120209283#1 120209283#2 120209283#3 120209283#4 120209283#5 120209283#6 120209283#7 120209283#8 120209283#9 120209283#11 120209283#12 -119417247#7 -119417247#6 -119417247#5 -119417247#4 -119417247#3"/>
    </vehicle>
    <vehicle id="bike_4.1" type="bike" depart="47.01" departPos="random_free">
        <route edges="167280591#16 167280591#17 113540628#5 113540628#6 284769926#1 284769926#2 298742258#3 298742258#4 122601941#11 431593439#6 431593439#7 119409501#0 -119417247#3"/>
    </vehicle>
    <vehicle id="bike_37.0" type="bike" depart="47.16" departPos="random_free">
        <route edges="33266644#9 33266644#10 33266644#11 33266644#12 33266644#13 33266644#14 498920722#5 498920722#6 301319790#15 301319790#16 301319790#17 301319790#18 301319790#19 301319790#20 301319790#21 301319790#22 301319790#23 431593436 431593439#2 431593439#3 120209283#12 -119417247#7 -119417247#6 -119417247#5 -119417247#4 -119417247#3"/>
    </vehicle>
    <vehicle id="bike_37.1" type="bike" depart="47.95" departPos="random_free">
        <route edges="33266644#9 33266644#10 33266644#11 33266644#12 33266644#13 33266644#14 498920722#5 498920722#6 301319790#15 301319790#16 301319790#17 301319790#18 301319790#19 301319790#20 301319790#21 301319790#22 301319790#23 431593436 431593439#2 431593439#3 120209283#12 -119417247#7 -119417247#6 -119417247#5 -119417247#4 -119417247#3"/>
    </vehicle>
    <vehicle id="bike_7.2" type="bike" depart="50.60" departPos="random_free">
        <route edges="127152801#1 127152801#2 127152801#3 127152801#4 127152801#5 431593436 431593439#2 431593439#3 120209283#12 -119417247#7 -119417247#6 -119417247#5 -119417247#4 -119417247#3"/>
    </vehicle>
    <vehicle id="bike_13.1" type="bike" depart="52.47" departPos="random_free">
        <route edges="106327587#5 158404854#1 158404854#2 132740673#0 132740673#2 -156397984#3 -156397984#2 -158309218#0 -113540626 596198027#3 596198027#5 596198027#7 596198027#8 596198027#9 66208988#2 66208988#3 125565890 167280591#11 -119417247#4 -119417247#3"/>
    </vehicle>
    <vehicle id="bike_29.0" type="bike" depart="53.69" departPos="random_free">
        <route edges="431593417#1 33266754#2 317256480#5 431593414#0 431593414#1 301319790#13 431593418#1 431593418#2 431593418#3 431593424#0 431593424#1 431593426#0 431593426#1 431593430#0 431593430#1 431593434#0 431593436 431593439#2 431593439#3 120209283#12 -119417247#7 -119417247#6 -119417247#5 -119417247#4 -119417247#3"/>
    </vehicle>
    <vehicle id="bike_26.2" type="bike" depart="54.47" departPos="random_free">
        <route edges="-105857084#0 130927682#16 547727187 547727185#0 547727185#1 547727185#2 132742473#14 132742473#15 120209283#0 120209283#1 120209283#2 120209283#3 120209283#4 120209283#5 120209283#6 120209283#7 120209283#8 120209283#9 120209283#11 120209283#12 -119417247#7 -119417247#6 -119417247#5 -119417247#4 -119417247#3"/>
    </vehicle>
    <vehicle id="bike_0.2" type="bike" depart="55.65" departPos="random_free">
        <route edges="-119417247#3"/>
    </vehicle>
    <vehicle id="bike_30.1" type="bike" depart="56.51" departPos="random_free">
        <route edges="406494990#2 406494996#0 406494996#1 406495003 406495005 406471825#0 406471825#1 406471825#2 406500081#0 406500081#1 406500081#2 406500081#3 406500081#4 406500084#0 406500084#1 406500084#2 406500084#3 406500084#4 406472087#0 406472087#1 66208988#1 66208988#2 66208988#3 125565890 167280591#11 -119417247#4 -119417247#3"/>
    </vehicle>
    <vehicle id="bike_2.1" type="bike" depart="57.85" departPos="random_free">
        <route edges="-125565889#2 298742258#1 596198027#7 596198027#8 596198027#9 66208988#2 66208988#3 125565890 167280591#11 -119417247#4 -119417247#3"/>
    </vehicle>
    <vehicle id="bike_35.1" type="bike" depart="58.02" departPos="random_free">
        <route edges="217202641#2 317256481#3 317256481#4 217101891#12 217101891#13 217101891#14 547727189#3 283453679 217202636#1 217202636#2 106327587#0 106327587#1 312688112#3 312688112#4 312688112#6 312688112#7 312688112#8 312688112#9 122601941#2 122601941#3 122601941#4 122601941#5 122601941#6 122601941#7 122601941#8 122601941#9 122601941#11 431593439#6 431593439#7 119409501#0 -119417247#3"/>
    </vehicle>
    <vehicle id="bike_22.0" type="bike" depart="58.23" departPos="random_free">
        <route edges="33266672#0 298742305#5 298742305#6 301319790#17 301319790#18 301319790#19 301319790#20 301319790#21 301319790#22 301319790#23 431593436 431593439#2 431593439#3 120209283#12 -119417247#7 -119417247#6 -119417247#5 -119417247#4 -119417247#3"/>
    </vehicle>
    <vehicle id="bike_36.1" type="bike" depart="63.32" departPos="random_free">
        <route edges="406494993#3 406494993#4 217202620#0 431592588#22 431592588#23 217202639#5 406494990#1 406494990#2 406494996#0 406494996#1 406495003 406495005 406471825#0 406471825#1 406471825#2 406500081#0 406500081#1 406500081#2 406500081#3 406500081#4 406500084#0 406500084#1 406500084#2 406500084#3 406500084#4 406472087#0 406472087#1 66208988#1 66208988#2 66208988#3 125565890 167280591#11 -119417247#4 -119417247#3"/>
    </vehicle>
    <vehicle id="bike_24.1" type="bike" depart="64.90" departPos="random_free">
        <route edges="132742473#14 132742473#15 120209283#0 120209283#1 120209283#2 120209283#3 120209283#4 120209283#5 120209283#6 120209283#7 120209283#8 120209283#9 120209283#11 120209283#12 -119417247#7 -119417247#6 -119417247#5 -119417247#4 -119417247#3"/>
    </vehicle>
    <vehicle id="bike_21.1" type="bike" depart="70.25" departPos="random_free">
        <route edges="312538668#16 431593424#0 431593424#1 431593426#0 431593426#1 431593430#0 431593430#1 431593434#0 431593436 431593439#2 431593439#3 120209283#12 -119417247#7 -119417247#6 -119417247#5 -119417247#4 -119417247#3"/>
    </vehicle>
    <vehicle id="bike_29.1" type="bike" depart="70.72" departPos="random_free">
        <route edges="431593417#1 33266754#2 317256480#5 431593414#0 431593414#1 301319790#13 431593418#1 431593418#2 431593418#3 431593424#0 431593424#1 431593426#0 431593426#1 431593430#0 431593430#1 431593434#0 431593436 431593439#2 431593439#3 120209283#12 -119417247#7 -119417247#6 -119417247#5 -119417247#4 -119417247#3"/>
    </vehicle>
    <vehicle id="bike_28.1" type="bike" depart="73.98" departPos="random_free">
        <route edges="312538668#20 431593419#2 431593419#3 132742473#13 132742473#14 132742473#15 120209283#0 120209283#1 120209283#2 120209283#3 120209283#4 120209283#5 120209283#6 120209283#7 120209283#8 120209283#9 120209283#11 120209283#12 -119417247#7 -119417247#6 -119417247#5 -119417247#4 -119417247#3"/>
    </vehicle>
    <vehicle id="bike_34.1" type="bike" depart="76.05" departPos="random_free">
        <route edges="220080268#2 220080268#3 217101884#9 217101884#10 217101884#11 172365948#4 172365948#5 317256481#13 317256481#14 132742473#12 132742473#13 132742473#14 132742473#15 120209283#0 120209283#1 120209283#2 120209283#3 120209283#4 120209283#5 120209283#6 120209283#7 120209283#8 120209283#9 120209283#11 120209283#12 -119417247#7 -119417247#6 -119417247#5 -119417247#4 -119417247#3"/>
    </vehicle>
    <vehicle id="bike_27.2" type="bike" depart="76.76" departPos="random_free">
        <route edges="431593421#6 105207833#14 498920722#3 498920722#4 33266644#15 33266672#0 298742305#5 298742305#6 301319790#17 301319790#18 301319790#19 301319790#20 301319790#21 301319790#22 301319790#23 431593436 431593439#2 431593439#3 120209283#12 -119417247#7 -119417247#6 -119417247#5 -119417247#4 -119417247#3"/>
    </vehicle>
    <vehicle id="bike_21.2" type="bike" depart="77.89" departPos="random_free">
        <route edges="312538668#16 431593424#0 431593424#1 431593426#0 431593426#1 431593430#0 431593430#1 431593434#0 431593436 431593439#2 431593439#3 120209283#12 -119417247#7 -119417247#6 -119417247#5 -119417247#4 -119417247#3"/>
    </vehicle>
    <vehicle id="bike_14.3" type="bike" depart="79.84" departPos="random_free">
        <route edges="431593429#5 82684073#0 82684073#1 13866063#3 13866063#4 13866063#5 127152801#3 127152801#4 127152801#5 431593436 431593439#2 431593439#3 120209283#12 -119417247#7 -119417247#6 -119417247#5 -119417247#4 -119417247#3"/>
    </vehicle>
    <vehicle id="bike_25.2" type="bike" depart="80.11" departPos="random_free">
        <route edges="-132973777 283453679 217202636#1 217202636#2 106327587#0 106327587#1 312688112#3 312688112#4 312688112#6 312688112#7 312688112#8 312688112#9 122601941#2 122601941#3 122601941#4 122601941#5 122601941#6 122601941#7 122601941#8 122601941#9 122601941#11 431593439#6 431593439#7 119409501#0 -119417247#3"/>
    </vehicle>
    <vehicle id="bike_5.1" type="bike" depart="81.63" departPos="random_free">
        <route edges="298742258#12 127152801#5 431593436 431593439#2 431593439#3 120209283#12 -119417247#7 -119417247#6 -119417247#5 -119417247#4 -119417247#3"/>
    </vehicle>
    <vehicle id="bike_20.2" type="bike" depart="82.30" departPos="random_free">
        <route edges="106327587#1 312688112#3 312688112#4 312688112#6 312688112#7 312688112#8 312688112#9 122601941#2 122601941#3 122601941#4 122601941#5 122601941#6 122601941#7 122601941#8 122601941#9 122601941#11 431593439#6 431593439#7 119409501#0 -119417247#3"/>
    </vehicle>
    <vehicle id="bike_9.1" type="bike" depart="88.60" departPos="random_free">
        <route edges="406471828#1 122546198#0 122546198#1 122546198#2 122601941#6 122601941#7 122601941#8 122601941#9 122601941#11 431593439#6 431593439#7 119409501#0 -119417247#3"/>
    </vehicle>
    <vehicle id="bike_33.0" type="bike" depart="89.32" departPos="random_free">
        <route edges="431593415#2 431593415#3 132742473#11 132742473#12 132742473#13 132742473#14 132742473#15 120209283#0 120209283#1 120209283#2 120209283#3 120209283#4 120209283#5 120209283#6 120209283#7 120209283#8 120209283#9 120209283#11 120209283#12 -119417247#7 -119417247#6 -119417247#5 -119417247#4 -119417247#3"/>
    </vehicle>
    <vehicle id="bike_4.2" type="bike" depart="89.59" departPos="random_free">
        <route edges="167280591#16 167280591#17 113540628#5 113540628#6 284769926#1 284769926#2 298742258#3 298742258#4 122601941#11 431593439#6 431593439#7 119409501#0 -119417247#3"/>
    </vehicle>
    <vehicle id="bike_25.3" type="bike" depart="89.91" departPos="random_free">
        <route edges="-132973777 283453679 217202636#1 217202636#2 106327587#0 106327587#1 312688112#3 312688112#4 312688112#6 312688112#7 312688112#8 312688112#9 122601941#2 122601941#3 122601941#4 122601941#5 122601941#6 122601941#7 122601941#8 122601941#9 122601941#11 431593439#6 431593439#7 119409501#0 -119417247#3"/>
    </vehicle>
    <vehicle id="bike_38.1" type="bike" depart="89.96" departPos="random_free">
        <route edges="431592588#2 132742473#9 132742473#10 132742473#11 132742473#12 132742473#13 132742473#14 132742473#15 120209283#0 120209283#1 120209283#2 120209283#3 120209283#4 120209283#5 120209283#6 120209283#7 120209283#8 120209283#9 120209283#11 120209283#12 -119417247#7 -119417247#6 -119417247#5 -119417247#4 -119417247#3"/>
    </vehicle>
    <vehicle id="bike_18.0" type="bike" depart="90.56" departPos="random_free">
        <route edges="312688112#6 312688112#7 312688112#8 312688112#9 122601941#2 122601941#3 122601941#4 122601941#5 122601941#6 122601941#7 122601941#8 122601941#9 122601941#11 431593439#6 431593439#7 119409501#0 -119417247#3"/>
    </vehicle>
    <vehicle id="bike_24.2" type="bike" depart="91.39" departPos="random_free">
        <route edges="132742473#14 132742473#15 120209283#0 120209283#1 120209283#2 120209283#3 120209283#4 120209283#5 120209283#6 120209283#7 120209283#8 120209283#9 120209283#11 120209283#12 -119417247#7 -119417247#6 -119417247#5 -119417247#4 -119417247#3"/>
    </vehicle>
    <vehicle id="bike_32.1" type="bike" depart="94.44" departPos="random_free">
        <route edges="220080268#2 220080268#3 217101884#9 217101884#10 217101884#11 172365948#4 172365948#5 317256481#13 317256481#14 132742473#12 132742473#13 132742473#14 132742473#15 120209283#0 120209283#1 120209283#2 120209283#3 120209283#4 120209283#5 120209283#6 120209283#7 120209283#8 120209283#9 120209283#11 120209283#12 -119417247#7 -119417247#6 -119417247#5 -119417247#4 -119417247#3"/>
    </vehicle>
    <vehicle id="bike_8.0" type="bike" depart="94.83" departPos="random_free">
        <route edges="113540628#3 119409677#2 119409677#3 122546198#2 122601941#6 122601941#7 122601941#8 122601941#9 122601941#11 431593439#6 431593439#7 119409501#0 -119417247#3"/>
    </vehicle>
    <vehicle id="bike_4.3" type="bike" depart="100.63" departPos="random_free">
        <route edges="167280591#16 167280591#17 113540628#5 113540628#6 284769926#1 284769926#2 298742258#3 298742258#4 122601941#11 431593439#6 431593439#7 119409501#0 -119417247#3"/>
    </vehicle>
    <vehicle id="bike_10.0" type="bike" depart="101.43" departPos="random_free">
        <route edges="33266147#1 82686741#10 82684073#3 431593430#0 431593430#1 431593434#0 431593436 431593439#2 431593439#3 120209283#12 -119417247#7 -119417247#6 -119417247#5 -119417247#4 -119417247#3"/>
    </vehicle>
    <vehicle id="bike_33.1" type="bike" depart="102.58" departPos="random_free">
        <route edges="431593415#2 431593415#3 132742473#11 132742473#12 132742473#13 132742473#14 132742473#15 120209283#0 120209283#1 120209283#2 120209283#3 120209283#4 120209283#5 120209283#6 120209283#7 120209283#8 120209283#9 120209283#11 120209283#12 -119417247#7 -119417247#6 -119417247#5 -119417247#4 -119417247#3"/>
    </vehicle>
    <vehicle id="bike_25.4" type="bike" depart="105.18" departPos="random_free">
        <route edges="-132973777 283453679 217202636#1 217202636#2 106327587#0 106327587#1 312688112#3 312688112#4 312688112#6 312688112#7 312688112#8 312688112#9 122601941#2 122601941#3 122601941#4 122601941#5 122601941#6 122601941#7 122601941#8 122601941#9 122601941#11 431593439#6 431593439#7 119409501#0 -119417247#3"/>
    </vehicle>
    <vehicle id="bike_20.3" type="bike" depart="106.94" departPos="random_free">
        <route edges="106327587#1 312688112#3 312688112#4 312688112#6 312688112#7 312688112#8 312688112#9 122601941#2 122601941#3 122601941#4 122601941#5 122601941#6 122601941#7 122601941#8 122601941#9 122601941#11 431593439#6 431593439#7 119409501#0 -119417247#3"/>
    </vehicle>
    <vehicle id="bike_5.2" type="bike" depart="107.79" departPos="random_free">
        <route edges="298742258#12 127152801#5 431593436 431593439#2 431593439#3 120209283#12 -119417247#7 -119417247#6 -119417247#5 -119417247#4 -119417247#3"/>
    </vehicle>
    <vehicle id="bike_17.0" type="bike" depart="107.93" departPos="random_free">
        <route edges="312688113#2 33266672#2 498920713#7 498920713#8 431593426#0 431593426#1 431593430#0 431593430#1 431593434#0 431593436 431593439#2 431593439#3 120209283#12 -119417247#7 -119417247#6 -119417247#5 -119417247#4 -119417247#3"/>
    </vehicle>
    <vehicle id="bike_33.2" type="bike" depart="108.25" departPos="random_free">
        <route edges="431593415#2 431593415#3 132742473#11 132742473#12 132742473#13 132742473#14 132742473#15 120209283#0 120209283#1 120209283#2 120209283#3 120209283#4 120209283#5 120209283#6 120209283#7 120209283#8 120209283#9 120209283#11 120209283#12 -119417247#7 -119417247#6 -119417247#5 -119417247#4 -119417247#3"/>
    </vehicle>
    <vehicle id="bike_2.2" type="bike" depart="108.52" departPos="random_free">
        <route edges="-125565889#2 298742258#1 596198027#7 596198027#8 596198027#9 66208988#2 66208988#3 125565890 167280591#11 -119417247#4 -119417247#3"/>
    </vehicle>
    <vehicle id="bike_18.1" type="bike" depart="109.27" departPos="random_free">
        <route edges="312688112#6 312688112#7 312688112#8 312688112#9 122601941#2 122601941#3 122601941#4 122601941#5 122601941#6 122601941#7 122601941#8 122601941#9 122601941#11 431593439#6 431593439#7 119409501#0 -119417247#3"/>
    </vehicle>
    <vehicle id="bike_20.4" type="bike" depart="111.65" departPos="random_free">
        <route edges="106327587#1 312688112#3 312688112#4 312688112#6 312688112#7 312688112#8 312688112#9 122601941#2 122601941#3 122601941#4 122601941#5 122601941#6 122601941#7 122601941#8 122601941#9 122601941#11 431593439#6 431593439#7 119409501#0 -119417247#3"/>
    </vehicle>
    <vehicle id="bike_18.2" type="bike" depart="114.89" departPos="random_free">
        <route edges="312688112#6 312688112#7 312688112#8 312688112#9 122601941#2 122601941#3 122601941#4 122601941#5 122601941#6 122601941#7 122601941#8 122601941#9 122601941#11 431593439#6 431593439#7 119409501#0 -119417247#3"/>
    </vehicle>
    <vehicle id="bike_6.1" type="bike" depart="116.59" departPos="random_free">
        <route edges="-113540626 596198027#3 596198027#5 596198027#7 596198027#8 596198027#9 66208988#2 66208988#3 125565890 167280591#11 -119417247#4 -119417247#3"/>
    </vehicle>
    <vehicle id="bike_2.3" type="bike" depart="121.78" departPos="random_free">
        <route edges="-125565889#2 298742258#1 596198027#7 596198027#8 596198027#9 66208988#2 66208988#3 125565890 167280591#11 -119417247#4 -119417247#3"/>
    </vehicle>
    <vehicle id="bike_21.3" type="bike" depart="122.68" departPos="random_free">