<?xml version="1.0" encoding="UTF-8"?>

<!-- generated on 09/25/18 12:28:55 by Eclipse SUMO duarouter Version 1.0.1
<configuration xmlns:xsi="http://www.w3.org/2001/XMLSchema-instance" xsi:noNamespaceSchemaLocation="http://sumo.dlr.de/xsd/duarouterConfiguration.xsd">

    <input>
        <net-file value="osm.net.xml"/>
        <route-files value="osm.bicycle.trips.xml"/>
    </input>

    <output>
        <output-file value="osm.bicycle.rou.xml"/>
        <alternatives-output value="osm.bicycle.rou.alt.xml"/>
    </output>

    <time>
        <begin value="0"/>
        <end value="3600.0"/>
    </time>

    <report>
        <no-warnings value="true"/>
        <ignore-errors value="true"/>
        <no-step-log value="true"/>
    </report>

</configuration>
-->

<routes xmlns:xsi="http://www.w3.org/2001/XMLSchema-instance" xsi:noNamespaceSchemaLocation="http://sumo.dlr.de/xsd/routes_file.xsd">
    <vType id="bike_bicycle" vClass="bicycle"/>
    <vehicle id="bike0" type="bike_bicycle" depart="0.00" departLane="best">
        <route edges="284769925#7 431593437#8 431593437#9 431593437#10 188229657#0 188229657#1 123151889#1 123151889#2 123151889#3 -123153074#12 -123153074#11"/>
    </vehicle>
    <vehicle id="bike1" type="bike_bicycle" depart="1.21" departLane="best">
        <route edges="123151902#0 123151902#1 123151902#2 123151902#3 123151902#4 123151902#5 123151902#6 123151902#7 123151902#8 123151902#9 123153078#1 123153078#2 30756258#11 30756258#12 30756258#13 66208988#0 66208988#1 66208988#2 66208988#3 125565890 298742300#0 298742300#1 120209283#14"/>
    </vehicle>
    <vehicle id="bike2" type="bike_bicycle" depart="2.42" departLane="best">
        <route edges="317256466#4 33266644#13 33266644#14 498920722#5 498920722#6 301319790#15 301319790#16 301319790#17 301319790#18 301319790#19 301319790#20 301319790#21 301319790#22 301319790#23 301319790#25 301319790#26 301319790#27 301319790#28"/>
    </vehicle>
    <vehicle id="bike3" type="bike_bicycle" depart="3.64" departLane="best">
        <route edges="431593427#13 431593427#14 132740650#1 132740650#2 -132740642#1 -132740642#0 158404854#2 132740673#0 406471827#3 406500086#0 132740675 -132740675"/>
    </vehicle>
    <vehicle id="bike4" type="bike_bicycle" depart="4.85" departLane="best">
        <route edges="154966413#11 217199005#0 217101882#7 217101882#8 217101890#2 217101890#3 217101890#4 217101890#5 217101890#6 217101890#7 217101890#8 217101890#9 217101890#10 -124945316#2 -124945316#1 -124945316#0 45258670#13 45258670#14 298742277#7 298742277#9 298742277#10 298742277#11 298742277#12 -154963153#5 -154963153#4 123153076#0 123153076#1 123153076#3 -123153076#3"/>
    </vehicle>
    <vehicle id="bike5" type="bike_bicycle" depart="6.06" departLane="best">
        <route edges="119417249#0 119417249#1 127152801#4 82686741#8 28551894#5 431593435#2 -113540624#1 -113540624#0 431593431#3 431593431#4 431593431#5 431593431#6 431593431#7 431593431#8 431593431#9 431593431#11 431593431#12 431593431#13 105538493#5 105538493#6 431593427#14 431593427#15 431593427#16 431593427#17 402795292#3 402795292#4 402266294#0 402266294#1 402266294#2 402266294#3 402266294#4 402266294#5 154966413#0 154966413#1 154966413#2 154966413#3 -217199008#1 217101882#15"/>
    </vehicle>
    <vehicle id="bike6" type="bike_bicycle" depart="7.27" departLane="best">
        <route edges="-123153074#2 123153074#2 45258666#6 45258666#7 45258666#8 30576579#4 30576579#5 30576579#7 30576579#8 30576579#9 30576579#10 30576579#12 30576579#14 30576579#15 30576579#16 30576579#17 30576579#18 30576579#19 113540625#1"/>
    </vehicle>
    <vehicle id="bike7" type="bike_bicycle" depart="8.48" departLane="best">
        <route edges="298742258#12 82686741#8 82686741#9 82686741#10 82686741#11 82686741#12 498920713#8 431593428#1 298742240#0 298742240#1 431593422#0 312538668#19 431593420#0 431593419#2 113540625#8 113540625#9 431593415#3 431593415#4 431593415#5 431593415#6 431593415#7 431593415#8 431593415#9 431593415#11 431593415#12 431593415#13 217101891#11"/>
    </vehicle>
    <vehicle id="bike8" type="bike_bicycle" depart="9.69" departLane="best">
        <route edges="120209283#11 431593439#4 -82685349#0 431593437#5 431593437#6 167280591#15 167280591#16 167280591#17 113540628#5 113540628#6 113540628#7 113540626 105538493#0 105538493#1 105538493#3 105538493#4 105538493#5 105538493#6 431593427#14 431593427#15 431593427#16 431593427#17 402795292#3 402795292#4 402266294#0 402266294#1 402266294#2 402266294#3 402266294#4 402266294#5 402266294#6 402266294#7 217198976#1 217198976#2 217198976#3 217198996#2 217198996#3"/>
    </vehicle>
    <vehicle id="bike9" type="bike_bicycle" depart="10.91" departLane="best">
        <route edges="406494986#1 463580244#2 463580244#3 463580244#4 463580244#5 463580244#6 406494990#2 406494996#0 406494996#1 406495003 406495005 406471825#0 406471825#1 406471825#2 406500081#0 406500081#1 406500081#2 406500081#3 -158404854#3 132740673#0 132740673#2 -156397984#3 -156397984#2 -158309218#0 -113540626"/>
    </vehicle>
    <vehicle id="bike10" type="bike_bicycle" depart="12.12" departLane="best">
        <route edges="406494982#3 406494982#4 -217202624#5 -217202624#4 -217202624#3 -217202624#2 -217202624#1 431592584#25 217198971#1 217198971#2 217198971#3 217198971#4 217198971#5 217198971#6 217198971#7 217198971#8 105857090#3 105857090#4 217198996#9 217198996#10 217198996#11 217198996#12 217198996#13 30756232#0 30756232#1 30756232#2 45258670#9 125017665#4 158393750#10 158393750#11 158393750#12 158393750#13 298742277#9 298742277#10 298742277#11 298742277#12 -154963153#5 -154963153#4 123153076#0 123153076#1 -125553447#3 30756258#1"/>
    </vehicle>
    <vehicle id="bike11" type="bike_bicycle" depart="13.33" departLane="best">
        <route edges="125570051 406505025#4 167280591#2 431593445#5 431593445#7 -431593445#7"/>
    </vehicle>
    <vehicle id="bike12" type="bike_bicycle" depart="14.54" departLane="best">
        <route edges="498920713#8 431593427#2 431593427#3 431593427#4 431593427#5 431593427#6 431593427#7 431593427#8 431593427#9 431593427#11 431593427#12 431593427#13 431593427#14 431593427#15 431593427#16 431593427#17 122735101#2 122735101#4 122735101#5 122735101#6 122735101#7 122735101#8 122735101#9 30756233#4 157490798#5 157490798#6 157490798#7 125017665#0 45258663#0 45258663#1 45258663#2 45258663#3 45258663#4 45258663#5 298742277#4 298742277#5 124923911#0 124923911#1 124923911#2 124923911#3 124923911#4 125553452#10"/>
    </vehicle>
    <vehicle id="bike13" type="bike_bicycle" depart="15.75" departLane="best">
        <route edges="-145483361#5 -145483359#1 154963168#3 158393750#17 30756257#1 30756257#2 30756257#3 30756257#4 30756257#5 125017671#0 125017671#1 125017671#2 125017671#3 125017671#4 125017671#5 125017671#6 125017671#7 125017671#8 125017671#9 125017671#10 149824695#0 149824695#4 -149824695#4"/>
    </vehicle>
    <vehicle id="bike14" type="bike_bicycle" depart="16.96" departLane="best">
        <route edges="431592581#1 431592581#2 132740654#1 132740654#2 132740654#3 132740654#4 172365947#4 172365947#5 132740677#0 172365954#5 431592580#7 431592580#8 431592580#10 431592580#11 431592580#12 431592580#13 431592580#14 431592580#15 431592580#16 431592580#17 431592580#18 431592580#19 431592580#20 431592580#21 431592580#22 431592580#23 431592580#24 94477754#3 94477754#4 508287158#0 508287158#1 508287158#2 508287158#3 508287158#4 508287158#5 -217199009#7 -217199009#6 -217199009#5 -217199009#4 -217199009#3 217199009#3"/>
    </vehicle>
    <vehicle id="bike15" type="bike_bicycle" depart="18.18" departLane="best">
        <route edges="406494982#8 217198984#2 217202630#8 217202630#9 132688342 217198973#6 217101888#13 217101888#14 217101888#15 217101888#16 217101888#17 217101888#18 217101888#20 217101888#21 217101888#22 172365948#0 172365948#1 172365948#2 172365948#3 172365948#4 172365948#5 317256481#13 317256481#14 317256481#15 317256481#16 431593414#1 301319790#13 431593418#1 431593418#2 431593423#2 431593423#3 431593423#4 431593423#5 154904494#0 154904494#1 312688113#6"/>
    </vehicle>
    <vehicle id="bike16" type="bike_bicycle" depart="19.39" departLane="best">
        <route edges="217101889#7 217101889#8 431593415#13 217101891#11 317256481#5 317256481#6 317256481#7 317256481#9 317256481#10 317256481#11 317256481#12 317256481#13 317256481#14 317256481#15 317256481#16 431593414#1 301319790#13 431593418#1 431593418#2 431593423#2 431593423#3 33266672#0 33266672#1 312688113#3 13866063#0 13866063#1 13866063#2 13866063#3 13866063#4 13866063#5 13866063#7 13866063#8 13866063#9 13866063#10 -549439982#2 549439982#2"/>
    </vehicle>
    <vehicle id="bike17" type="bike_bicycle" depart="20.60" departLane="best">
        <route edges="132973775 217101889#1 547727189#2 547727189#3 547727189#6 547727189#7 406495005 406471824#0 406471824#1 406471824#2 154187242#0 154187242#1 154187242#2 154187242#3 217198967#3 217198967#4"/>
    </vehicle>
    <vehicle id="bike18" type="bike_bicycle" depart="21.81" departLane="best">
        <route edges="406500090#2 406500090#3 406500088#0 406500088#1 406500088#2 13865999#0 13865999#1 13865999#3 105538493#0 -156397984#2 158309218#1 158309219#0 158309219#1 158309219#2 158309219#3 158309219#4 184098324#0 184098324#1 217101889#0 217101889#1 217101889#2 217101889#3 217101889#4 217101889#5 217101889#6 217101889#7 217101889#8 217101889#9 217101889#10 217101889#11 217101889#12 217101889#13 217101888#18 217101888#20 449719491#1 449719491#2 449719491#3 449719491#4 449719491#5 312688120#5 172365954#2 217202627#1"/>
    </vehicle>
    <vehicle id="bike19" type="bike_bicycle" depart="23.02" departLane="best">
        <route edges="431592588#15 431592588#16 431592588#18 431592588#19 431592588#20 431592588#21 431592588#22 431592588#23 154966413#0 154966413#1 154966413#2 154966413#3 154966413#4 154966413#5 154966413#6 154966413#7 217199004#2 217101882#11 217198991#11"/>
    </vehicle>
    <vehicle id="bike20" type="bike_bicycle" depart="24.23" departLane="best">
        <route edges="312538639#2 312538639#5 -121566461#1 -121566461#0 30756258#5 -125017665#12 -125017665#11 -125017665#10 -125017665#9 -123153070#4 -30756232#7 -30756232#6 -30756232#5 361610712#12 125017662#0 125017662#1 -125017662#1"/>
    </vehicle>
    <vehicle id="bike21" type="bike_bicycle" depart="25.45" departLane="best">
        <route edges="121566461#2 312538652#4 312538652#5 312538652#6 312538652#7 -123151887#13 -123151887#12 -123151887#11 -123151887#10 -123151887#9 -123151887#8 -123151887#7 -123153070#1 -123153074#9 -123153074#8 -123153074#7 -123153074#5 123153074#5"/>
    </vehicle>
    <vehicle id="bike22" type="bike_bicycle" depart="26.66" departLane="best">
        <route edges="-125579164#3 -125579164#2 123151889#10 154963153#4 154963153#5 121636110"/>
    </vehicle>
    <vehicle id="bike23" type="bike_bicycle" depart="27.87" departLane="best">
        <route edges="-154963161#0 -145483361#0 537514345#7 123151902#0"/>
    </vehicle>
    <vehicle id="bike24" type="bike_bicycle" depart="29.08" departLane="best">
        <route edges="284769914#0 284769914#1 284769914#2 284769914#4 431593431#9 431593431#11 158309219#2 158309219#3 158309219#4 184098324#0 184098324#1 217101889#0 217101889#1 217101889#2 217101889#3 217101889#4 217101889#5 217101889#6 217101889#7 217101889#8 217101889#9 217101889#10 217101889#11 217101889#12 217101889#13 217101889#14 217101889#15 132740645#2 132740645#4"/>
    </vehicle>
    <vehicle id="bike25" type="bike_bicycle" depart="30.29" departLane="best">
        <route edges="132740673#2 -156397984#3 -156397984#2 -158309218#0 -113540626 596198027#3 119409676#0 284769926#2 298742258#3 298742258#4 122601941#11 122601941#12 122601941#13 298742300#1 120209283#14 119271025#3"/>
    </vehicle>
    <vehicle id="bike26" type="bike_bicycle" depart="31.50" departLane="best">
        <route edges="123151892#9 -125017665#6 361610712#11 361610712#12 361610712#13 361610712#14 -123151887#2 -123151887#1 45258667#5 45258667#6"/>
    </vehicle>
    <vehicle id="bike27" type="bike_bicycle" depart="32.72" departLane="best">
        <route edges="298742255#3 298742255#4 113540625#5 498920722#11 498920722#12 498920722#13 43990253 43990253-AddedOffRampEdge 288492778 43990256 105857079#0 105857079#1 406495004#0 406495004#1 402266294#2 402266294#3 402266294#4 406494993#3 406494993#4 217202620#0"/>
    </vehicle>
    <vehicle id="bike28" type="bike_bicycle" depart="33.93" departLane="best">
        <route edges="-94477754#4 -94477754#3 463580244#2 463580244#3 463580244#4 463580244#5 463580244#6 406494990#2 406494996#0 406494996#1 406495003 406495005 406471826#2 406471826#3 406471826#4 312688112#1 312688112#2 312688112#3 312688112#4 312688112#6 312688112#7 312688112#8 312688112#9 312688112#10 312688112#11 312688112#12 312688112#13 312688113#2 312688113#3 312688113#4 312688113#5"/>
    </vehicle>
    <vehicle id="bike29" type="bike_bicycle" depart="35.14" departLane="best">
        <route edges="-596198027#1 -596198027#0 406471828#1 122546198#0 122546198#1 119409677#4 119409677#5 119409677#6 119409677#7 119409677#8 119409677#9 298742255#0 298742255#1 172365945#0 43990253 43990253-AddedOffRampEdge 284462852 132973778"/>
    </vehicle>
    <vehicle id="bike30" type="bike_bicycle" depart="36.35" departLane="best">
        <route edges="596202474#4 596202474#5 596198027#0 596198027#1 596198027#2 596198027#3 596198027#5 596198027#7 596198027#8 596198027#9 596198027#10 -317322104#11 284769925#3"/>
    </vehicle>
    <vehicle id="bike31" type="bike_bicycle" depart="37.56" departLane="best">
        <route edges="217198970#2 217198980#2 406495001#2 406495001#3 463580244#7 463580244#8 463580244#9 463580244#10 463580244#11 402318237 402318236#1 30576579#4 30576579#5 30576579#7"/>
    </vehicle>
    <vehicle id="bike32" type="bike_bicycle" depart="38.77" departLane="best">
        <route edges="431592580#19 217202621#1 217202621#2 431592584#23 217202639#3 217202639#4 217202639#5 406494990#1 406494990#2 406494996#0 406494996#1 406495003 406495005 406471825#0 406471825#1 406471825#2 122735101#2 123154555#0 123154555#1 123154555#2 45258667#2 45258667#3 123153074#4 123153074#5 361610712#16"/>
    </vehicle>
    <vehicle id="bike33" type="bike_bicycle" depart="39.99" departLane="best">
        <route edges="121566479#3 312538652#7 -123151887#13 -123151887#12 -123151887#11 30756258#9 123153074#14 -125579156 -123153078#3"/>
    </vehicle>
    <vehicle id="bike34" type="bike_bicycle" depart="41.20" departLane="best">
        <route edges="125017665#4 361610712#11 361610712#12 361610712#13 361610712#14 361610712#15 361610712#16 361610712#17 361610712#18 361610712#19 361610712#20 158393750#0 158393750#1 158393750#2 -123154548 123151892#3"/>
    </vehicle>
    <vehicle id="bike35" type="bike_bicycle" depart="42.41" departLane="best">
        <route edges="431593418#0 431593418#1 498920722#10 498920722#11 498920722#12 132742473#15 120209283#0 431593425#4 431593425#5 122601941#1 122601941#2 431593427#6 431593427#7 122601938#3 122601938#4 431593431#8 431593431#9 431593431#11 431593431#12 106327587#5 158404854#1 158404854#2 132740673#0 406471827#3 158393750#0 158393750#1 158393750#2 158393750#3 158393750#4 123153074#7 123151892#5 123151892#6 123151892#7 123151892#8 123151892#9 125017665#7 125017665#8 125017665#9 125017665#10"/>
    </vehicle>
    <vehicle id="bike36" type="bike_bicycle" depart="43.62" departLane="best">
        <route edges="298742277#10 298742277#11 298742277#12 124938966#0 124938966#1 124938966#2 361610712#7 361610712#8 361610712#9 361610712#10 -125017665#4 -125017665#3 -125017665#2 -125017665#0 217198991#0 217198991#1 217198991#2 217198991#3 217198991#4 217198991#5 217198991#6 217198991#7 217198991#8 217198991#9 217198991#10 217198991#11 217198991#12 217198991#13 217198991#14 146819210#0 -146819245#2 -146819245#1 146819245#1"/>
    </vehicle>
    <vehicle id="bike37" type="bike_bicycle" depart="44.83" departLane="best">
        <route edges="431593439#4 431593439#5 431593439#6 167280591#13"/>
    </vehicle>
    <vehicle id="bike38" type="bike_bicycle" depart="46.04" departLane="best">
        <route edges="123151892#3 123153072#3 158393750#4 -123153074#5 -123153074#4 -123153074#3 -123153074#2 -123153074#1 122735101#8 122735101#9 122735101#10 122735101#11 122735101#12 122735101#13 122735101#14 122735101#15 122735101#16"/>
    </vehicle>
    <vehicle id="bike39" type="bike_bicycle" depart="47.26" departLane="best">
        <route edges="217198972#2 217198996#3 217198996#4 217198996#5 217198996#6 217198996#7 217198996#8 217198996#9 217198996#10 217198996#11 463972124#9 463972124#10 30756233#3 30756233#4 125017672#0 45258666#3 45258666#4 123151887#0 123151887#1 123151887#2 123151887#4 123151887#5 123151887#6 123151887#7 123151887#8 123151887#9 123151889#5"/>
    </vehicle>
    <vehicle id="bike40" type="bike_bicycle" depart="48.47" departLane="best">
        <route edges="217198995#5 217199002#7 217198991#9 217198991#10 217101882#12 217101882#13 217101882#14 217101882#15 217101882#16 217101882#17 217101882#18 463580244#7 463580244#8 463580244#9 463580244#10 463580244#11 402318237 406471826#2 406471826#3 406471826#4 312688112#1 312688112#2 312688112#3 312688112#4 312688112#6 312688112#7 312688112#8 312688112#9 312688112#10 312688112#11 312688112#12 312688112#13 431593424#1 431593428#1"/>
    </vehicle>
    <vehicle id="bike41" type="bike_bicycle" depart="49.68" departLane="best">
        <route edges="151666818#2 -151666818#2 217101886#3 217101886#4 217101886#5 217101886#6 217101886#7 217101886#8 217101886#9 217101886#10 217101886#11 217101886#12 217101886#13 217101886#14 463580244#9 463580244#10 463580244#11 402318237 406471826#2 406471826#3 406471826#4 312688112#1 312688112#2 312688112#3 312688112#4 312688112#6 312688112#7 312688112#8 119409677#8 119409677#9"/>
    </vehicle>
    <vehicle id="bike42" type="bike_bicycle" depart="50.89" departLane="best">
        <route edges="89819896 105857090#0 217198970#0 217101886#14 406495001#0 217101883#0"/>
    </vehicle>
    <vehicle id="bike43" type="bike_bicycle" depart="52.10" departLane="best">
        <route edges="-145483360#0 537514345#6 537514345#7 123151902#0 123151902#1 123151902#2 123151902#3 123151902#4 -125017665#10"/>
    </vehicle>
    <vehicle id="bike44" type="bike_bicycle" depart="53.31" departLane="best">
        <route edges="-154966573 -125039731#3 -125039731#2 -125039731#1 -125017670#0 361610712#6 361610712#7 361610712#8 361610712#9 361610712#10 361610712#11 361610712#12 125017662#0 125017662#1 125017662#2 125017662#3 217198967#0 217198967#1 217198967#2 217198967#3 217198967#4 217198967#5 217198967#6 217198967#7 217198967#8 217198967#9 217198967#10 217198967#11 217198972#5 217198972#6 -431592586#22 -431592586#21 -431592586#20 -431592586#19 217202632#2"/>
    </vehicle>
    <vehicle id="bike45" type="bike_bicycle" depart="54.53" departLane="best">
        <route edges="402266294#6 463580244#5 154966413#0"/>
    </vehicle>
    <vehicle id="bike46" type="bike_bicycle" depart="55.74" departLane="best">
        <route edges="-125553447#3 125553447#3 -123153076#1 -123153076#0 154963153#4 123151902#1 123151902#2 -125579164#0 123151901#2 123151901#3 123151901#4 123151901#5 123151901#6 123151901#7 123151901#8 123151901#9 123151901#10 13865999#0"/>
    </vehicle>
    <vehicle id="bike47" type="bike_bicycle" depart="56.95" departLane="best">
        <route edges="82686741#5 82686741#6 82686741#8 82686741#9 82686741#10 82686741#11 82686741#12 498920713#8 431593428#1 298742240#0 298742240#1 431593422#0 312538668#19 431593420#0 431593419#2 113540625#8 113540625#9 431593415#3 431593415#4 172365945#5 172365945#6 172365945#7 172365945#8 431592584#5 431592584#6 431592584#7 431592584#8 431592584#9 431592584#10 596198028#9 217101888#20"/>
    </vehicle>
    <vehicle id="bike48" type="bike_bicycle" depart="58.16" departLane="best">
        <route edges="547727189#2 547727189#3 217101880#0 217101880#1 431593419#14 217202641#2 217202641#3 217202641#4 217202641#5 431592588#14 431592588#15 431592588#16"/>
    </vehicle>
    <vehicle id="bike49" type="bike_bicycle" depart="59.37" departLane="best">
        <route edges="-119417247#7 -119417247#6 122601941#13 298742300#1 298742300#2 298742300#3 312538668#6 312538668#7"/>
    </vehicle>
    <vehicle id="bike50" type="bike_bicycle" depart="60.58" departLane="best">
        <route edges="30576579#16 30576579#17 -82685235#3 -82685235#2 -82685235#1 -82685235#0 172365945#0 172365945#1 172365945#2 172365945#3 172365945#4 172365945#5 172365945#6 172365945#7 172365945#8 172365945#9 172365945#10 431592580#5 431592580#6 431592580#7 431592580#8 431592580#10 217101889#15 217101889#16 217101889#17 217101889#18"/>
    </vehicle>
    <vehicle id="bike51" type="bike_bicycle" depart="61.80" departLane="best">
        <route edges="123151892#9 125017665#7 123151899#3 30756232#7 -123153070#3 -125579163#6 123151901#5 123151901#6 123151901#7 123151901#8 123151901#9 123151901#10 406472087#0 406472087#1 66208988#1 66208988#2 284769925#5 284769925#6"/>
    </vehicle>
    <vehicle id="bike52" type="bike_bicycle" depart="63.01" departLane="best">
        <route edges="-156397984#2 156397984#2 156397984#3 -132740673#2 406471827#3 406500086#0 406500086#1 189981513#1 189981513#2 406500083#0 157490798#0 157490798#1 157490798#2 157490798#3 157490798#4 157490798#5 157490798#6 157490798#7 157490798#8 157490798#9 157490798#10 157490798#11 157490798#12"/>
    </vehicle>
    <vehicle id="bike53" type="bike_bicycle" depart="64.22" departLane="best">
        <route edges="167263003 -167263003 -113540624#10 -113540624#9 -113540624#8 -113540624#7 431593439#3 431593439#4 -82685349#0 431593437#5 431593437#6 167280591#15 167280591#16 167280591#17 113540628#5 113540628#6 113540628#7 113540626 105538493#0 105538493#1 105538493#3 105538493#4 105538493#5 105538493#6 431593427#14 431593427#15 431593427#16 431593427#17 122735101#2 122735101#4 122735101#5 122735101#6 122735101#7 122735101#8 122735101#9 122735101#10 122735101#11 122735101#12 217198991#1 463972124#8"/>
    </vehicle>
    <vehicle id="bike54" type="bike_bicycle" depart="65.43" departLane="best">
        <route edges="431593417#3 154904493#4 317256480#3 33266644#11 33266644#12 33266644#13 33266644#14 498920722#5 498920722#6 301319790#15 301319790#16 301319790#17 301319790#18 301319790#19 301319790#20 301319790#21 301319790#22 301319790#23 431593437#2 431593437#3 431593437#4 431593437#5 431593437#6 431593437#7 431593437#8 431593437#9 431593437#10 188229657#0 188229657#1 123151889#1 123151889#2 123151889#3 123151889#4 123151889#5 123151889#6 123151889#7"/>
    </vehicle>
    <vehicle id="bike55" type="bike_bicycle" depart="66.64" departLane="best">
        <route edges="217101882#11 217101882#12 217101882#13 217101882#14 217101882#15 217101882#16 217101882#17 217101882#18 463580244#7 463580244#8 463580244#9 463580244#10 463580244#11 402318237 402318236#1 406500081#2 406500081#3 -158404854#3 132740673#0 132740673#2 -156397984#3 -156397984#2 -158309218#0 105538493#0"/>
    </vehicle>
    <vehicle id="bike56" type="bike_bicycle" depart="67.85" departLane="best">
        <route edges="431593438#0 431593438#1 431593440#0 431593440#1 431593440#2 431593440#4 431593440#5 431593432#0 431593432#1 431593428#0 431593428#1 298742240#0 298742240#1 431593422#0 312538668#19 431593420#0 431593419#2 113540625#8 113540625#9 431593415#3 431593415#4 431593415#5 431593415#6 431593415#7 431593415#8 431593415#9 431593415#11 431593415#12 431593415#13 431593415#14 431593415#15 431593415#16"/>
    </vehicle>
    <vehicle id="bike57" type="bike_bicycle" depart="69.07" departLane="best">
        <route edges="123154555#3 123155564#0 123155562#1 123155562#2 361610712#19 361610712#20 122316729#1 122316729#2 122316729#3 122316729#4 406471828#1 284769914#4 284769914#5"/>
    </vehicle>
    <vehicle id="bike58" type="bike_bicycle" depart="70.28" departLane="best">
        <route edges="217202621#0 217202621#1 217202621#2 217202621#3 -431592586#20 -431592586#19 -431592586#18 -431592586#17 -431592586#16 -431592586#15 -431592586#14 -431592586#13 -431592586#12 -431592586#11 -431592586#10 -431592586#8 -431592586#7 -431592586#6 -431592586#5"/>
    </vehicle>
    <vehicle id="bike59" type="bike_bicycle" depart="71.49" departLane="best">
        <route edges="33266644#0 33266644#1 33266644#2 33266644#3 33266644#4 217101885#4 217101885#5 431592580#2 431592580#3 132742473#5 132742473#6 431592584#4 431592584#5 431592584#6 431592584#7 172365954#8 172365954#9 172365954#10 172365954#11 172365954#12 172365954#13 431593419#8 431593419#9 431593419#11 217101889#6"/>
    </vehicle>
    <vehicle id="bike60" type="bike_bicycle" depart="72.70" departLane="best">
        <route edges="361610712#16 361610712#17 361610712#18 361610712#19 361610712#20 122316729#1 122316729#2 122316729#3 158309219#0 158309219#1 158309219#2 158309219#3 158309219#4 184098324#0 184098324#1 217101889#0 217101889#1 217101889#2 217101889#3 217101889#4 130927682#11 130927682#12 130927682#14 220080268#0 220080268#1 220080268#2 220080268#3 217101884#9 217101884#10 547727186#4 547727186#5 -431592586#5 -431592586#4 172365945#8 172365945#9 217101888#25"/>
    </vehicle>
    <vehicle id="bike61" type="bike_bicycle" depart="73.91" departLane="best">
        <route edges="-105857084#1 -105857084#0 220080268#0 431593419#9 431593419#11 431593419#12 431593419#13 431593419#14 431593419#15 431593419#17 431593419#18 431593419#19 431593419#20 431593419#21 217101883#0 217101883#1 217101883#2 217101883#3 217101883#4 217101883#5 217101883#6 217101883#7 217101883#8 217101883#9 217101883#10 217101883#11 217101883#12 217101883#13 125017671#8 125017671#9 125017671#10"/>
    </vehicle>
    <vehicle id="bike62" type="bike_bicycle" depart="75.13" departLane="best">
        <route edges="-123151887#9 -123151887#8 -123151887#7 123153070#2 125579163#7 125579163#8 123151892#7 125579157 158393750#8 -30756232#3 45258670#9 -125017665#3 45258665#0 -125017669#1 45258663#1 45258663#2"/>
    </vehicle>
    <vehicle id="bike63" type="bike_bicycle" depart="76.34" departLane="best">
        <route edges="431593419#14 217202641#2 317256481#3 217101880#3 217101880#4 217101880#5 217101880#6 217101880#7 217101880#8 217101888#16 217101888#17 217101888#18 217101888#20 449719491#1 449719491#2 -132740677#1 -132740677#0 33265683#0 33265683#1 33265683#2 33265683#3 312538668#30 312538668#31 431592572#2 431592572#3 431592572#4"/>
    </vehicle>
    <vehicle id="bike64" type="bike_bicycle" depart="77.55" departLane="best">
        <route edges="124938966#6 124923911#1 -125017670#2 45258670#17 -30756257#2 -30756257#1 158393750#18 158393750#19 158393750#20 158393750#21 125017673#6 125017673#7 -125017673#7"/>
    </vehicle>
    <vehicle id="bike65" type="bike_bicycle" depart="78.76" departLane="best">
        <route edges="431593419#12 217101891#13 217101891#14 547727189#3 547727189#6 547727189#7 406495006#0 463580244#11"/>
    </vehicle>
    <vehicle id="bike66" type="bike_bicycle" depart="79.97" departLane="best">
        <route edges="-132740673#0 132740673#0 132740673#2 132740673#3 132740673#4 113540628#10 406500084#3 406500084#4 188229657#0 188229657#1 188229657#2 188229657#3 188229657#4 188229657#5"/>
    </vehicle>
    <vehicle id="bike67" type="bike_bicycle" depart="81.18" departLane="best">
        <route edges="-125565889#3 125565889#3 13865999#3 105538493#0 -156397984#2 -156397984#1 -596198027#0 406471828#1 122546198#0 122546198#1 119409677#4 119409677#5 119409677#6 119409677#7 119409677#8 119409677#9 298742255#0 298742255#1 172365945#0 172365945#1 547727185#2 547727185#3 113540625#7 113540625#8 317256481#16 431593416#0 431593416#1 431593413#2 431593413#3 33266644#10"/>
    </vehicle>
    <vehicle id="bike68" type="bike_bicycle" depart="82.40" departLane="best">
        <route edges="33266644#3 33266644#4 217101885#4 217101885#5 431592580#2 431592580#3 431592580#4 431592580#5 431592580#6 431592580#7 431592580#8 431592580#10 431592580#11 431592580#12 431592580#13 431592580#14 431592580#15 431592580#16 431592580#17 431592580#18 217101877#8 217101877#10 217101877#11 -217202624#5 -217202624#4"/>
    </vehicle>
    <vehicle id="bike69" type="bike_bicycle" depart="83.61" departLane="best">
        <route edges="172365954#2 172365954#3 172365954#4 172365954#5 172365954#6 172365954#7 431592584#8 431592584#9 431592584#10 431592584#11 431592584#12 217101891#7 217101891#8 431592588#12 431592588#13 431592588#14 431592588#15 431592588#16 431592588#18 431592588#19 431592588#20 431592588#21 431592588#22 431592588#23 154966413#0 154966413#1 154966413#2 154966413#3 -217199008#1 217101882#15 217198967#10"/>
    </vehicle>
    <vehicle id="bike70" type="bike_bicycle" depart="84.82" departLane="best">
        <route edges="123151892#3 123153072#3 158393750#4 361610712#16 361610712#17 361610712#18 361610712#19 361610712#20 122316729#1 122316729#2 122316729#3 158309219#0 158309219#1 158309219#2 158309219#3 158309219#4 184098324#0 184098324#1 217101889#0 217101889#1 217101889#2 217101889#3 217101889#4 130927682#11 130927682#12 130927682#14 220080268#0 220080268#1 220080268#2 220080268#3 217101884#9 217101884#10 217101884#11 172365948#4 431593415#6"/>
    </vehicle>
    <vehicle id="bike71" type="bike_bicycle" depart="86.03" departLane="best">
        <route edges="154966413#2 154966413#3 -217199008#1 217101882#15 217101882#16 217101882#17 217101882#18 463580244#7 463580244#8 463580244#9 463580244#10 463580244#11 402318237 402318236#1 406500081#2 406500081#3 406500081#4 406500084#0 406500084#1 406500084#2 406500084#3 406500084#4 406472087#0 406472087#1 406472087#2 406500089#0 125565892 158309217#0 406505025#0 406505025#1 119407978#2"/>
    </vehicle>
    <vehicle id="bike72" type="bike_bicycle" depart="87.24" departLane="best">